data_image0
_cell_length_a       33.5078
_cell_length_b       33.5078
_cell_length_c       33.456
_cell_angle_alpha    90
_cell_angle_beta     90
_cell_angle_gamma    90

_symmetry_space_group_name_H-M    "P 1"
_symmetry_int_tables_number       1

loop_
  _symmetry_equiv_pos_as_xyz
  'x, y, z'

loop_
  _atom_site_label
  _atom_site_occupancy
  _atom_site_fract_x
  _atom_site_fract_y
  _atom_site_fract_z
  _atom_site_thermal_displace_type
  _atom_site_B_iso_or_equiv
  _atom_site_type_symbol
  O1       1.0000 0.32367  0.04175  0.45748  Biso   1.000  O
  O2       1.0000 0.25709  0.04131  0.45800  Biso   1.000  O
  C1       1.0000 0.29024  0.05307  0.44492  Biso   1.000  C
  C2       1.0000 0.28979  0.08271  0.41167  Biso   1.000  C
  C3       1.0000 0.32416  0.09718  0.39509  Biso   1.000  C
  H1       1.0000 0.34860  0.08910  0.40540  Biso   1.000  H
  C4       1.0000 0.32326  0.12335  0.36363  Biso   1.000  C
  H2       1.0000 0.34710  0.13240  0.35270  Biso   1.000  H
  C5       1.0000 0.28758  0.13657  0.34784  Biso   1.000  C
  C6       1.0000 0.25258  0.12200  0.36478  Biso   1.000  C
  H3       1.0000 0.22810  0.13030  0.35480  Biso   1.000  H
  C7       1.0000 0.25374  0.09570  0.39591  Biso   1.000  C
  H4       1.0000 0.23000  0.08630  0.40670  Biso   1.000  H
  C8       1.0000 0.28585  0.16516  0.31388  Biso   1.000  C
  C9       1.0000 0.31193  0.16236  0.28200  Biso   1.000  C
  H5       1.0000 0.33090  0.14210  0.28160  Biso   1.000  H
  C10      1.0000 0.25282  0.22160  0.28247  Biso   1.000  C
  C11      1.0000 0.25677  0.19481  0.31341  Biso   1.000  C
  H6       1.0000 0.23930  0.19660  0.33490  Biso   1.000  H
  C12      1.0000 0.41513  0.99000  0.46763  Biso   1.000  C
  H7       1.0000 0.40110  0.98340  0.44460  Biso   1.000  H
  C13      1.0000 0.45540  0.98980  0.46632  Biso   1.000  C
  H8       1.0000 0.46880  0.98220  0.44320  Biso   1.000  H
  C14      1.0000 0.41560  0.02800  0.48090  Biso   1.000  C
  H9       1.0000 0.40170  0.04700  0.46610  Biso   1.000  H
  C15      1.0000 0.45552  0.02910  0.48100  Biso   1.000  C
  H10      1.0000 0.46900  0.05020  0.46910  Biso   1.000  H
  O3       1.0000 0.82367  0.54175  0.95748  Biso   1.000  O
  O4       1.0000 0.75709  0.54131  0.95800  Biso   1.000  O
  C16      1.0000 0.79024  0.55307  0.94492  Biso   1.000  C
  C17      1.0000 0.78979  0.58271  0.91167  Biso   1.000  C
  C18      1.0000 0.82416  0.59718  0.89509  Biso   1.000  C
  H11      1.0000 0.84860  0.58910  0.90540  Biso   1.000  H
  C19      1.0000 0.82326  0.62335  0.86363  Biso   1.000  C
  H12      1.0000 0.84710  0.63240  0.85270  Biso   1.000  H
  C20      1.0000 0.78758  0.63657  0.84784  Biso   1.000  C
  C21      1.0000 0.75258  0.62200  0.86478  Biso   1.000  C
  H13      1.0000 0.72810  0.63030  0.85480  Biso   1.000  H
  C22      1.0000 0.75374  0.59570  0.89591  Biso   1.000  C
  H14      1.0000 0.73000  0.58630  0.90670  Biso   1.000  H
  C23      1.0000 0.78585  0.66516  0.81388  Biso   1.000  C
  C24      1.0000 0.81193  0.66236  0.78200  Biso   1.000  C
  H15      1.0000 0.83090  0.64210  0.78160  Biso   1.000  H
  C25      1.0000 0.75282  0.72160  0.78247  Biso   1.000  C
  C26      1.0000 0.75677  0.69481  0.81341  Biso   1.000  C
  H16      1.0000 0.73930  0.69660  0.83490  Biso   1.000  H
  C27      1.0000 0.91513  0.49000  0.96763  Biso   1.000  C
  H17      1.0000 0.90110  0.48340  0.94460  Biso   1.000  H
  C28      1.0000 0.95540  0.48980  0.96632  Biso   1.000  C
  H18      1.0000 0.96880  0.48220  0.94320  Biso   1.000  H
  C29      1.0000 0.91560  0.52800  0.98090  Biso   1.000  C
  H19      1.0000 0.90170  0.54700  0.96610  Biso   1.000  H
  C30      1.0000 0.95552  0.52910  0.98100  Biso   1.000  C
  H20      1.0000 0.96900  0.55020  0.96910  Biso   1.000  H
  O5       1.0000 0.67633  0.95825  0.45748  Biso   1.000  O
  O6       1.0000 0.74291  0.95869  0.45800  Biso   1.000  O
  C31      1.0000 0.70976  0.94693  0.44492  Biso   1.000  C
  C32      1.0000 0.71021  0.91729  0.41167  Biso   1.000  C
  C33      1.0000 0.67584  0.90282  0.39509  Biso   1.000  C
  H21      1.0000 0.65140  0.91090  0.40540  Biso   1.000  H
  C34      1.0000 0.67674  0.87665  0.36363  Biso   1.000  C
  H22      1.0000 0.65290  0.86760  0.35270  Biso   1.000  H
  C35      1.0000 0.71242  0.86343  0.34784  Biso   1.000  C
  C36      1.0000 0.74742  0.87800  0.36478  Biso   1.000  C
  H23      1.0000 0.77190  0.86970  0.35480  Biso   1.000  H
  C37      1.0000 0.74626  0.90430  0.39591  Biso   1.000  C
  H24      1.0000 0.77000  0.91370  0.40670  Biso   1.000  H
  C38      1.0000 0.71415  0.83484  0.31388  Biso   1.000  C
  C39      1.0000 0.68807  0.83764  0.28200  Biso   1.000  C
  H25      1.0000 0.66910  0.85790  0.28160  Biso   1.000  H
  C40      1.0000 0.74718  0.77840  0.28247  Biso   1.000  C
  C41      1.0000 0.74323  0.80519  0.31341  Biso   1.000  C
  H26      1.0000 0.76070  0.80340  0.33490  Biso   1.000  H
  C42      1.0000 0.58487  0.01000  0.46763  Biso   1.000  C
  H27      1.0000 0.59890  0.01660  0.44460  Biso   1.000  H
  C43      1.0000 0.54460  0.01020  0.46632  Biso   1.000  C
  H28      1.0000 0.53120  0.01780  0.44320  Biso   1.000  H
  C44      1.0000 0.58440  0.97200  0.48090  Biso   1.000  C
  H29      1.0000 0.59830  0.95300  0.46610  Biso   1.000  H
  C45      1.0000 0.54448  0.97090  0.48100  Biso   1.000  C
  H30      1.0000 0.53100  0.94980  0.46910  Biso   1.000  H
  O7       1.0000 0.17633  0.45825  0.95748  Biso   1.000  O
  O8       1.0000 0.24291  0.45869  0.95800  Biso   1.000  O
  C46      1.0000 0.20976  0.44693  0.94492  Biso   1.000  C
  C47      1.0000 0.21021  0.41729  0.91167  Biso   1.000  C
  C48      1.0000 0.17584  0.40282  0.89509  Biso   1.000  C
  H31      1.0000 0.15140  0.41090  0.90540  Biso   1.000  H
  C49      1.0000 0.17674  0.37665  0.86363  Biso   1.000  C
  H32      1.0000 0.15290  0.36760  0.85270  Biso   1.000  H
  C50      1.0000 0.21242  0.36343  0.84784  Biso   1.000  C
  C51      1.0000 0.24742  0.37800  0.86478  Biso   1.000  C
  H33      1.0000 0.27190  0.36970  0.85480  Biso   1.000  H
  C52      1.0000 0.24626  0.40430  0.89591  Biso   1.000  C
  H34      1.0000 0.27000  0.41370  0.90670  Biso   1.000  H
  C53      1.0000 0.21415  0.33484  0.81388  Biso   1.000  C
  C54      1.0000 0.18807  0.33764  0.78200  Biso   1.000  C
  H35      1.0000 0.16910  0.35790  0.78160  Biso   1.000  H
  C55      1.0000 0.24718  0.27840  0.78247  Biso   1.000  C
  C56      1.0000 0.24323  0.30519  0.81341  Biso   1.000  C
  H36      1.0000 0.26070  0.30340  0.83490  Biso   1.000  H
  C57      1.0000 0.08487  0.51000  0.96763  Biso   1.000  C
  H37      1.0000 0.09890  0.51660  0.94460  Biso   1.000  H
  C58      1.0000 0.04460  0.51020  0.96632  Biso   1.000  C
  H38      1.0000 0.03120  0.51780  0.94320  Biso   1.000  H
  C59      1.0000 0.08440  0.47200  0.98090  Biso   1.000  C
  H39      1.0000 0.09830  0.45300  0.96610  Biso   1.000  H
  C60      1.0000 0.04448  0.47090  0.98100  Biso   1.000  C
  H40      1.0000 0.03100  0.44980  0.96910  Biso   1.000  H
  O9       1.0000 0.95825  0.32367  0.45748  Biso   1.000  O
  O10      1.0000 0.95869  0.25709  0.45800  Biso   1.000  O
  C61      1.0000 0.94693  0.29024  0.44492  Biso   1.000  C
  C62      1.0000 0.91729  0.28979  0.41167  Biso   1.000  C
  C63      1.0000 0.90282  0.32416  0.39509  Biso   1.000  C
  H41      1.0000 0.91090  0.34860  0.40540  Biso   1.000  H
  C64      1.0000 0.87665  0.32326  0.36363  Biso   1.000  C
  H42      1.0000 0.86760  0.34710  0.35270  Biso   1.000  H
  C65      1.0000 0.86343  0.28758  0.34784  Biso   1.000  C
  C66      1.0000 0.87800  0.25258  0.36478  Biso   1.000  C
  H43      1.0000 0.86970  0.22810  0.35480  Biso   1.000  H
  C67      1.0000 0.90430  0.25374  0.39591  Biso   1.000  C
  H44      1.0000 0.91370  0.23000  0.40670  Biso   1.000  H
  C68      1.0000 0.83484  0.28585  0.31388  Biso   1.000  C
  C69      1.0000 0.83764  0.31193  0.28200  Biso   1.000  C
  H45      1.0000 0.85790  0.33090  0.28160  Biso   1.000  H
  C70      1.0000 0.77840  0.25282  0.28247  Biso   1.000  C
  C71      1.0000 0.80519  0.25677  0.31341  Biso   1.000  C
  H46      1.0000 0.80340  0.23930  0.33490  Biso   1.000  H
  C72      1.0000 0.01000  0.41513  0.46763  Biso   1.000  C
  H47      1.0000 0.01660  0.40110  0.44460  Biso   1.000  H
  C73      1.0000 0.01020  0.45540  0.46632  Biso   1.000  C
  H48      1.0000 0.01780  0.46880  0.44320  Biso   1.000  H
  C74      1.0000 0.97200  0.41560  0.48090  Biso   1.000  C
  H49      1.0000 0.95300  0.40170  0.46610  Biso   1.000  H
  C75      1.0000 0.97090  0.45552  0.48100  Biso   1.000  C
  H50      1.0000 0.94980  0.46900  0.46910  Biso   1.000  H
  O11      1.0000 0.45825  0.82367  0.95748  Biso   1.000  O
  O12      1.0000 0.45869  0.75709  0.95800  Biso   1.000  O
  C76      1.0000 0.44693  0.79024  0.94492  Biso   1.000  C
  C77      1.0000 0.41729  0.78979  0.91167  Biso   1.000  C
  C78      1.0000 0.40282  0.82416  0.89509  Biso   1.000  C
  H51      1.0000 0.41090  0.84860  0.90540  Biso   1.000  H
  C79      1.0000 0.37665  0.82326  0.86363  Biso   1.000  C
  H52      1.0000 0.36760  0.84710  0.85270  Biso   1.000  H
  C80      1.0000 0.36343  0.78758  0.84784  Biso   1.000  C
  C81      1.0000 0.37800  0.75258  0.86478  Biso   1.000  C
  H53      1.0000 0.36970  0.72810  0.85480  Biso   1.000  H
  C82      1.0000 0.40430  0.75374  0.89591  Biso   1.000  C
  H54      1.0000 0.41370  0.73000  0.90670  Biso   1.000  H
  C83      1.0000 0.33484  0.78585  0.81388  Biso   1.000  C
  C84      1.0000 0.33764  0.81193  0.78200  Biso   1.000  C
  H55      1.0000 0.35790  0.83090  0.78160  Biso   1.000  H
  C85      1.0000 0.27840  0.75282  0.78247  Biso   1.000  C
  C86      1.0000 0.30519  0.75677  0.81341  Biso   1.000  C
  H56      1.0000 0.30340  0.73930  0.83490  Biso   1.000  H
  C87      1.0000 0.51000  0.91513  0.96763  Biso   1.000  C
  H57      1.0000 0.51660  0.90110  0.94460  Biso   1.000  H
  C88      1.0000 0.51020  0.95540  0.96632  Biso   1.000  C
  H58      1.0000 0.51780  0.96880  0.94320  Biso   1.000  H
  C89      1.0000 0.47200  0.91560  0.98090  Biso   1.000  C
  H59      1.0000 0.45300  0.90170  0.96610  Biso   1.000  H
  C90      1.0000 0.47090  0.95552  0.98100  Biso   1.000  C
  H60      1.0000 0.44980  0.96900  0.96910  Biso   1.000  H
  O13      1.0000 0.04175  0.67633  0.45748  Biso   1.000  O
  O14      1.0000 0.04131  0.74291  0.45800  Biso   1.000  O
  C91      1.0000 0.05307  0.70976  0.44492  Biso   1.000  C
  C92      1.0000 0.08271  0.71021  0.41167  Biso   1.000  C
  C93      1.0000 0.09718  0.67584  0.39509  Biso   1.000  C
  H61      1.0000 0.08910  0.65140  0.40540  Biso   1.000  H
  C94      1.0000 0.12335  0.67674  0.36363  Biso   1.000  C
  H62      1.0000 0.13240  0.65290  0.35270  Biso   1.000  H
  C95      1.0000 0.13657  0.71242  0.34784  Biso   1.000  C
  C96      1.0000 0.12200  0.74742  0.36478  Biso   1.000  C
  H63      1.0000 0.13030  0.77190  0.35480  Biso   1.000  H
  C97      1.0000 0.09570  0.74626  0.39591  Biso   1.000  C
  H64      1.0000 0.08630  0.77000  0.40670  Biso   1.000  H
  C98      1.0000 0.16516  0.71415  0.31388  Biso   1.000  C
  C99      1.0000 0.16236  0.68807  0.28200  Biso   1.000  C
  H65      1.0000 0.14210  0.66910  0.28160  Biso   1.000  H
  C100     1.0000 0.22160  0.74718  0.28247  Biso   1.000  C
  C101     1.0000 0.19481  0.74323  0.31341  Biso   1.000  C
  H66      1.0000 0.19660  0.76070  0.33490  Biso   1.000  H
  C102     1.0000 0.99000  0.58487  0.46763  Biso   1.000  C
  H67      1.0000 0.98340  0.59890  0.44460  Biso   1.000  H
  C103     1.0000 0.98980  0.54460  0.46632  Biso   1.000  C
  H68      1.0000 0.98220  0.53120  0.44320  Biso   1.000  H
  C104     1.0000 0.02800  0.58440  0.48090  Biso   1.000  C
  H69      1.0000 0.04700  0.59830  0.46610  Biso   1.000  H
  C105     1.0000 0.02910  0.54448  0.48100  Biso   1.000  C
  H70      1.0000 0.05020  0.53100  0.46910  Biso   1.000  H
  O15      1.0000 0.54175  0.17633  0.95748  Biso   1.000  O
  O16      1.0000 0.54131  0.24291  0.95800  Biso   1.000  O
  C106     1.0000 0.55307  0.20976  0.94492  Biso   1.000  C
  C107     1.0000 0.58271  0.21021  0.91167  Biso   1.000  C
  C108     1.0000 0.59718  0.17584  0.89509  Biso   1.000  C
  H71      1.0000 0.58910  0.15140  0.90540  Biso   1.000  H
  C109     1.0000 0.62335  0.17674  0.86363  Biso   1.000  C
  H72      1.0000 0.63240  0.15290  0.85270  Biso   1.000  H
  C110     1.0000 0.63657  0.21242  0.84784  Biso   1.000  C
  C111     1.0000 0.62200  0.24742  0.86478  Biso   1.000  C
  H73      1.0000 0.63030  0.27190  0.85480  Biso   1.000  H
  C112     1.0000 0.59570  0.24626  0.89591  Biso   1.000  C
  H74      1.0000 0.58630  0.27000  0.90670  Biso   1.000  H
  C113     1.0000 0.66516  0.21415  0.81388  Biso   1.000  C
  C114     1.0000 0.66236  0.18807  0.78200  Biso   1.000  C
  H75      1.0000 0.64210  0.16910  0.78160  Biso   1.000  H
  C115     1.0000 0.72160  0.24718  0.78247  Biso   1.000  C
  C116     1.0000 0.69481  0.24323  0.81341  Biso   1.000  C
  H76      1.0000 0.69660  0.26070  0.83490  Biso   1.000  H
  C117     1.0000 0.49000  0.08487  0.96763  Biso   1.000  C
  H77      1.0000 0.48340  0.09890  0.94460  Biso   1.000  H
  C118     1.0000 0.48980  0.04460  0.96632  Biso   1.000  C
  H78      1.0000 0.48220  0.03120  0.94320  Biso   1.000  H
  C119     1.0000 0.52800  0.08440  0.98090  Biso   1.000  C
  H79      1.0000 0.54700  0.09830  0.96610  Biso   1.000  H
  C120     1.0000 0.52910  0.04448  0.98100  Biso   1.000  C
  H80      1.0000 0.55020  0.03100  0.96910  Biso   1.000  H
  O17      1.0000 0.67633  0.04175  0.54252  Biso   1.000  O
  O18      1.0000 0.74291  0.04131  0.54200  Biso   1.000  O
  C121     1.0000 0.70976  0.05307  0.55508  Biso   1.000  C
  C122     1.0000 0.71021  0.08271  0.58833  Biso   1.000  C
  C123     1.0000 0.67584  0.09718  0.60491  Biso   1.000  C
  H81      1.0000 0.65140  0.08910  0.59460  Biso   1.000  H
  C124     1.0000 0.67674  0.12335  0.63637  Biso   1.000  C
  H82      1.0000 0.65290  0.13240  0.64730  Biso   1.000  H
  C125     1.0000 0.71242  0.13657  0.65216  Biso   1.000  C
  C126     1.0000 0.74742  0.12200  0.63522  Biso   1.000  C
  H83      1.0000 0.77190  0.13030  0.64520  Biso   1.000  H
  C127     1.0000 0.74626  0.09570  0.60409  Biso   1.000  C
  H84      1.0000 0.77000  0.08630  0.59330  Biso   1.000  H
  C128     1.0000 0.71415  0.16516  0.68612  Biso   1.000  C
  C129     1.0000 0.68807  0.16236  0.71800  Biso   1.000  C
  H85      1.0000 0.66910  0.14210  0.71840  Biso   1.000  H
  C130     1.0000 0.74718  0.22160  0.71753  Biso   1.000  C
  C131     1.0000 0.74323  0.19481  0.68659  Biso   1.000  C
  H86      1.0000 0.76070  0.19660  0.66510  Biso   1.000  H
  C132     1.0000 0.58487  0.99000  0.53237  Biso   1.000  C
  H87      1.0000 0.59890  0.98340  0.55540  Biso   1.000  H
  C133     1.0000 0.54460  0.98980  0.53368  Biso   1.000  C
  H88      1.0000 0.53120  0.98220  0.55680  Biso   1.000  H
  C134     1.0000 0.58440  0.02800  0.51910  Biso   1.000  C
  H89      1.0000 0.59830  0.04700  0.53390  Biso   1.000  H
  C135     1.0000 0.54448  0.02910  0.51900  Biso   1.000  C
  H90      1.0000 0.53100  0.05020  0.53090  Biso   1.000  H
  O19      1.0000 0.17633  0.54175  0.04252  Biso   1.000  O
  O20      1.0000 0.24291  0.54131  0.04200  Biso   1.000  O
  C136     1.0000 0.20976  0.55307  0.05508  Biso   1.000  C
  C137     1.0000 0.21021  0.58271  0.08833  Biso   1.000  C
  C138     1.0000 0.17584  0.59718  0.10491  Biso   1.000  C
  H91      1.0000 0.15140  0.58910  0.09460  Biso   1.000  H
  C139     1.0000 0.17674  0.62335  0.13637  Biso   1.000  C
  H92      1.0000 0.15290  0.63240  0.14730  Biso   1.000  H
  C140     1.0000 0.21242  0.63657  0.15216  Biso   1.000  C
  C141     1.0000 0.24742  0.62200  0.13522  Biso   1.000  C
  H93      1.0000 0.27190  0.63030  0.14520  Biso   1.000  H
  C142     1.0000 0.24626  0.59570  0.10409  Biso   1.000  C
  H94      1.0000 0.27000  0.58630  0.09330  Biso   1.000  H
  C143     1.0000 0.21415  0.66516  0.18612  Biso   1.000  C
  C144     1.0000 0.18807  0.66236  0.21800  Biso   1.000  C
  H95      1.0000 0.16910  0.64210  0.21840  Biso   1.000  H
  C145     1.0000 0.24718  0.72160  0.21753  Biso   1.000  C
  C146     1.0000 0.24323  0.69481  0.18659  Biso   1.000  C
  H96      1.0000 0.26070  0.69660  0.16510  Biso   1.000  H
  C147     1.0000 0.08487  0.49000  0.03237  Biso   1.000  C
  H97      1.0000 0.09890  0.48340  0.05540  Biso   1.000  H
  C148     1.0000 0.04460  0.48980  0.03368  Biso   1.000  C
  H98      1.0000 0.03120  0.48220  0.05680  Biso   1.000  H
  C149     1.0000 0.08440  0.52800  0.01910  Biso   1.000  C
  H99      1.0000 0.09830  0.54700  0.03390  Biso   1.000  H
  C150     1.0000 0.04448  0.52910  0.01900  Biso   1.000  C
  H100     1.0000 0.03100  0.55020  0.03090  Biso   1.000  H
  O21      1.0000 0.32367  0.95825  0.54252  Biso   1.000  O
  O22      1.0000 0.25709  0.95869  0.54200  Biso   1.000  O
  C151     1.0000 0.29024  0.94693  0.55508  Biso   1.000  C
  C152     1.0000 0.28979  0.91729  0.58833  Biso   1.000  C
  C153     1.0000 0.32416  0.90282  0.60491  Biso   1.000  C
  H101     1.0000 0.34860  0.91090  0.59460  Biso   1.000  H
  C154     1.0000 0.32326  0.87665  0.63637  Biso   1.000  C
  H102     1.0000 0.34710  0.86760  0.64730  Biso   1.000  H
  C155     1.0000 0.28758  0.86343  0.65216  Biso   1.000  C
  C156     1.0000 0.25258  0.87800  0.63522  Biso   1.000  C
  H103     1.0000 0.22810  0.86970  0.64520  Biso   1.000  H
  C157     1.0000 0.25374  0.90430  0.60409  Biso   1.000  C
  H104     1.0000 0.23000  0.91370  0.59330  Biso   1.000  H
  C158     1.0000 0.28585  0.83484  0.68612  Biso   1.000  C
  C159     1.0000 0.31193  0.83764  0.71800  Biso   1.000  C
  H105     1.0000 0.33090  0.85790  0.71840  Biso   1.000  H
  C160     1.0000 0.25282  0.77840  0.71753  Biso   1.000  C
  C161     1.0000 0.25677  0.80519  0.68659  Biso   1.000  C
  H106     1.0000 0.23930  0.80340  0.66510  Biso   1.000  H
  C162     1.0000 0.41513  0.01000  0.53237  Biso   1.000  C
  H107     1.0000 0.40110  0.01660  0.55540  Biso   1.000  H
  C163     1.0000 0.45540  0.01020  0.53368  Biso   1.000  C
  H108     1.0000 0.46880  0.01780  0.55680  Biso   1.000  H
  C164     1.0000 0.41560  0.97200  0.51910  Biso   1.000  C
  H109     1.0000 0.40170  0.95300  0.53390  Biso   1.000  H
  C165     1.0000 0.45552  0.97090  0.51900  Biso   1.000  C
  H110     1.0000 0.46900  0.94980  0.53090  Biso   1.000  H
  O23      1.0000 0.82367  0.45825  0.04252  Biso   1.000  O
  O24      1.0000 0.75709  0.45869  0.04200  Biso   1.000  O
  C166     1.0000 0.79024  0.44693  0.05508  Biso   1.000  C
  C167     1.0000 0.78979  0.41729  0.08833  Biso   1.000  C
  C168     1.0000 0.82416  0.40282  0.10491  Biso   1.000  C
  H111     1.0000 0.84860  0.41090  0.09460  Biso   1.000  H
  C169     1.0000 0.82326  0.37665  0.13637  Biso   1.000  C
  H112     1.0000 0.84710  0.36760  0.14730  Biso   1.000  H
  C170     1.0000 0.78758  0.36343  0.15216  Biso   1.000  C
  C171     1.0000 0.75258  0.37800  0.13522  Biso   1.000  C
  H113     1.0000 0.72810  0.36970  0.14520  Biso   1.000  H
  C172     1.0000 0.75374  0.40430  0.10409  Biso   1.000  C
  H114     1.0000 0.73000  0.41370  0.09330  Biso   1.000  H
  C173     1.0000 0.78585  0.33484  0.18612  Biso   1.000  C
  C174     1.0000 0.81193  0.33764  0.21800  Biso   1.000  C
  H115     1.0000 0.83090  0.35790  0.21840  Biso   1.000  H
  C175     1.0000 0.75282  0.27840  0.21753  Biso   1.000  C
  C176     1.0000 0.75677  0.30519  0.18659  Biso   1.000  C
  H116     1.0000 0.73930  0.30340  0.16510  Biso   1.000  H
  C177     1.0000 0.91513  0.51000  0.03237  Biso   1.000  C
  H117     1.0000 0.90110  0.51660  0.05540  Biso   1.000  H
  C178     1.0000 0.95540  0.51020  0.03368  Biso   1.000  C
  H118     1.0000 0.96880  0.51780  0.05680  Biso   1.000  H
  C179     1.0000 0.91560  0.47200  0.01910  Biso   1.000  C
  H119     1.0000 0.90170  0.45300  0.03390  Biso   1.000  H
  C180     1.0000 0.95552  0.47090  0.01900  Biso   1.000  C
  H120     1.0000 0.96900  0.44980  0.03090  Biso   1.000  H
  O25      1.0000 0.04175  0.32367  0.54252  Biso   1.000  O
  O26      1.0000 0.04131  0.25709  0.54200  Biso   1.000  O
  C181     1.0000 0.05307  0.29024  0.55508  Biso   1.000  C
  C182     1.0000 0.08271  0.28979  0.58833  Biso   1.000  C
  C183     1.0000 0.09718  0.32416  0.60491  Biso   1.000  C
  H121     1.0000 0.08910  0.34860  0.59460  Biso   1.000  H
  C184     1.0000 0.12335  0.32326  0.63637  Biso   1.000  C
  H122     1.0000 0.13240  0.34710  0.64730  Biso   1.000  H
  C185     1.0000 0.13657  0.28758  0.65216  Biso   1.000  C
  C186     1.0000 0.12200  0.25258  0.63522  Biso   1.000  C
  H123     1.0000 0.13030  0.22810  0.64520  Biso   1.000  H
  C187     1.0000 0.09570  0.25374  0.60409  Biso   1.000  C
  H124     1.0000 0.08630  0.23000  0.59330  Biso   1.000  H
  C188     1.0000 0.16516  0.28585  0.68612  Biso   1.000  C
  C189     1.0000 0.16236  0.31193  0.71800  Biso   1.000  C
  H125     1.0000 0.14210  0.33090  0.71840  Biso   1.000  H
  C190     1.0000 0.22160  0.25282  0.71753  Biso   1.000  C
  C191     1.0000 0.19481  0.25677  0.68659  Biso   1.000  C
  H126     1.0000 0.19660  0.23930  0.66510  Biso   1.000  H
  C192     1.0000 0.99000  0.41513  0.53237  Biso   1.000  C
  H127     1.0000 0.98340  0.40110  0.55540  Biso   1.000  H
  C193     1.0000 0.98980  0.45540  0.53368  Biso   1.000  C
  H128     1.0000 0.98220  0.46880  0.55680  Biso   1.000  H
  C194     1.0000 0.02800  0.41560  0.51910  Biso   1.000  C
  H129     1.0000 0.04700  0.40170  0.53390  Biso   1.000  H
  C195     1.0000 0.02910  0.45552  0.51900  Biso   1.000  C
  H130     1.0000 0.05020  0.46900  0.53090  Biso   1.000  H
  O27      1.0000 0.54175  0.82367  0.04252  Biso   1.000  O
  O28      1.0000 0.54131  0.75709  0.04200  Biso   1.000  O
  C196     1.0000 0.55307  0.79024  0.05508  Biso   1.000  C
  C197     1.0000 0.58271  0.78979  0.08833  Biso   1.000  C
  C198     1.0000 0.59718  0.82416  0.10491  Biso   1.000  C
  H131     1.0000 0.58910  0.84860  0.09460  Biso   1.000  H
  C199     1.0000 0.62335  0.82326  0.13637  Biso   1.000  C
  H132     1.0000 0.63240  0.84710  0.14730  Biso   1.000  H
  C200     1.0000 0.63657  0.78758  0.15216  Biso   1.000  C
  C201     1.0000 0.62200  0.75258  0.13522  Biso   1.000  C
  H133     1.0000 0.63030  0.72810  0.14520  Biso   1.000  H
  C202     1.0000 0.59570  0.75374  0.10409  Biso   1.000  C
  H134     1.0000 0.58630  0.73000  0.09330  Biso   1.000  H
  C203     1.0000 0.66516  0.78585  0.18612  Biso   1.000  C
  C204     1.0000 0.66236  0.81193  0.21800  Biso   1.000  C
  H135     1.0000 0.64210  0.83090  0.21840  Biso   1.000  H
  C205     1.0000 0.72160  0.75282  0.21753  Biso   1.000  C
  C206     1.0000 0.69481  0.75677  0.18659  Biso   1.000  C
  H136     1.0000 0.69660  0.73930  0.16510  Biso   1.000  H
  C207     1.0000 0.49000  0.91513  0.03237  Biso   1.000  C
  H137     1.0000 0.48340  0.90110  0.05540  Biso   1.000  H
  C208     1.0000 0.48980  0.95540  0.03368  Biso   1.000  C
  H138     1.0000 0.48220  0.96880  0.05680  Biso   1.000  H
  C209     1.0000 0.52800  0.91560  0.01910  Biso   1.000  C
  H139     1.0000 0.54700  0.90170  0.03390  Biso   1.000  H
  C210     1.0000 0.52910  0.95552  0.01900  Biso   1.000  C
  H140     1.0000 0.55020  0.96900  0.03090  Biso   1.000  H
  O29      1.0000 0.95825  0.67633  0.54252  Biso   1.000  O
  O30      1.0000 0.95869  0.74291  0.54200  Biso   1.000  O
  C211     1.0000 0.94693  0.70976  0.55508  Biso   1.000  C
  C212     1.0000 0.91729  0.71021  0.58833  Biso   1.000  C
  C213     1.0000 0.90282  0.67584  0.60491  Biso   1.000  C
  H141     1.0000 0.91090  0.65140  0.59460  Biso   1.000  H
  C214     1.0000 0.87665  0.67674  0.63637  Biso   1.000  C
  H142     1.0000 0.86760  0.65290  0.64730  Biso   1.000  H
  C215     1.0000 0.86343  0.71242  0.65216  Biso   1.000  C
  C216     1.0000 0.87800  0.74742  0.63522  Biso   1.000  C
  H143     1.0000 0.86970  0.77190  0.64520  Biso   1.000  H
  C217     1.0000 0.90430  0.74626  0.60409  Biso   1.000  C
  H144     1.0000 0.91370  0.77000  0.59330  Biso   1.000  H
  C218     1.0000 0.83484  0.71415  0.68612  Biso   1.000  C
  C219     1.0000 0.83764  0.68807  0.71800  Biso   1.000  C
  H145     1.0000 0.85790  0.66910  0.71840  Biso   1.000  H
  C220     1.0000 0.77840  0.74718  0.71753  Biso   1.000  C
  C221     1.0000 0.80519  0.74323  0.68659  Biso   1.000  C
  H146     1.0000 0.80340  0.76070  0.66510  Biso   1.000  H
  C222     1.0000 0.01000  0.58487  0.53237  Biso   1.000  C
  H147     1.0000 0.01660  0.59890  0.55540  Biso   1.000  H
  C223     1.0000 0.01020  0.54460  0.53368  Biso   1.000  C
  H148     1.0000 0.01780  0.53120  0.55680  Biso   1.000  H
  C224     1.0000 0.97200  0.58440  0.51910  Biso   1.000  C
  H149     1.0000 0.95300  0.59830  0.53390  Biso   1.000  H
  C225     1.0000 0.97090  0.54448  0.51900  Biso   1.000  C
  H150     1.0000 0.94980  0.53100  0.53090  Biso   1.000  H
  O31      1.0000 0.45825  0.17633  0.04252  Biso   1.000  O
  O32      1.0000 0.45869  0.24291  0.04200  Biso   1.000  O
  C226     1.0000 0.44693  0.20976  0.05508  Biso   1.000  C
  C227     1.0000 0.41729  0.21021  0.08833  Biso   1.000  C
  C228     1.0000 0.40282  0.17584  0.10491  Biso   1.000  C
  H151     1.0000 0.41090  0.15140  0.09460  Biso   1.000  H
  C229     1.0000 0.37665  0.17674  0.13637  Biso   1.000  C
  H152     1.0000 0.36760  0.15290  0.14730  Biso   1.000  H
  C230     1.0000 0.36343  0.21242  0.15216  Biso   1.000  C
  C231     1.0000 0.37800  0.24742  0.13522  Biso   1.000  C
  H153     1.0000 0.36970  0.27190  0.14520  Biso   1.000  H
  C232     1.0000 0.40430  0.24626  0.10409  Biso   1.000  C
  H154     1.0000 0.41370  0.27000  0.09330  Biso   1.000  H
  C233     1.0000 0.33484  0.21415  0.18612  Biso   1.000  C
  C234     1.0000 0.33764  0.18807  0.21800  Biso   1.000  C
  H155     1.0000 0.35790  0.16910  0.21840  Biso   1.000  H
  C235     1.0000 0.27840  0.24718  0.21753  Biso   1.000  C
  C236     1.0000 0.30519  0.24323  0.18659  Biso   1.000  C
  H156     1.0000 0.30340  0.26070  0.16510  Biso   1.000  H
  C237     1.0000 0.51000  0.08487  0.03237  Biso   1.000  C
  H157     1.0000 0.51660  0.09890  0.05540  Biso   1.000  H
  C238     1.0000 0.51020  0.04460  0.03368  Biso   1.000  C
  H158     1.0000 0.51780  0.03120  0.05680  Biso   1.000  H
  C239     1.0000 0.47200  0.08440  0.01910  Biso   1.000  C
  H159     1.0000 0.45300  0.09830  0.03390  Biso   1.000  H
  C240     1.0000 0.47090  0.04448  0.01900  Biso   1.000  C
  H160     1.0000 0.44980  0.03100  0.03090  Biso   1.000  H
  O33      1.0000 0.67633  0.95825  0.54252  Biso   1.000  O
  O34      1.0000 0.74291  0.95869  0.54200  Biso   1.000  O
  C241     1.0000 0.70976  0.94693  0.55508  Biso   1.000  C
  C242     1.0000 0.71021  0.91729  0.58833  Biso   1.000  C
  C243     1.0000 0.67584  0.90282  0.60491  Biso   1.000  C
  H161     1.0000 0.65140  0.91090  0.59460  Biso   1.000  H
  C244     1.0000 0.67674  0.87665  0.63637  Biso   1.000  C
  H162     1.0000 0.65290  0.86760  0.64730  Biso   1.000  H
  C245     1.0000 0.71242  0.86343  0.65216  Biso   1.000  C
  C246     1.0000 0.74742  0.87800  0.63522  Biso   1.000  C
  H163     1.0000 0.77190  0.86970  0.64520  Biso   1.000  H
  C247     1.0000 0.74626  0.90430  0.60409  Biso   1.000  C
  H164     1.0000 0.77000  0.91370  0.59330  Biso   1.000  H
  C248     1.0000 0.71415  0.83484  0.68612  Biso   1.000  C
  C249     1.0000 0.68807  0.83764  0.71800  Biso   1.000  C
  H165     1.0000 0.66910  0.85790  0.71840  Biso   1.000  H
  C250     1.0000 0.74718  0.77840  0.71753  Biso   1.000  C
  C251     1.0000 0.74323  0.80519  0.68659  Biso   1.000  C
  H166     1.0000 0.76070  0.80340  0.66510  Biso   1.000  H
  C252     1.0000 0.58487  0.01000  0.53237  Biso   1.000  C
  H167     1.0000 0.59890  0.01660  0.55540  Biso   1.000  H
  C253     1.0000 0.54460  0.01020  0.53368  Biso   1.000  C
  H168     1.0000 0.53120  0.01780  0.55680  Biso   1.000  H
  C254     1.0000 0.58440  0.97200  0.51910  Biso   1.000  C
  H169     1.0000 0.59830  0.95300  0.53390  Biso   1.000  H
  C255     1.0000 0.54448  0.97090  0.51900  Biso   1.000  C
  H170     1.0000 0.53100  0.94980  0.53090  Biso   1.000  H
  O35      1.0000 0.17633  0.45825  0.04252  Biso   1.000  O
  O36      1.0000 0.24291  0.45869  0.04200  Biso   1.000  O
  C256     1.0000 0.20976  0.44693  0.05508  Biso   1.000  C
  C257     1.0000 0.21021  0.41729  0.08833  Biso   1.000  C
  C258     1.0000 0.17584  0.40282  0.10491  Biso   1.000  C
  H171     1.0000 0.15140  0.41090  0.09460  Biso   1.000  H
  C259     1.0000 0.17674  0.37665  0.13637  Biso   1.000  C
  H172     1.0000 0.15290  0.36760  0.14730  Biso   1.000  H
  C260     1.0000 0.21242  0.36343  0.15216  Biso   1.000  C
  C261     1.0000 0.24742  0.37800  0.13522  Biso   1.000  C
  H173     1.0000 0.27190  0.36970  0.14520  Biso   1.000  H
  C262     1.0000 0.24626  0.40430  0.10409  Biso   1.000  C
  H174     1.0000 0.27000  0.41370  0.09330  Biso   1.000  H
  C263     1.0000 0.21415  0.33484  0.18612  Biso   1.000  C
  C264     1.0000 0.18807  0.33764  0.21800  Biso   1.000  C
  H175     1.0000 0.16910  0.35790  0.21840  Biso   1.000  H
  C265     1.0000 0.24718  0.27840  0.21753  Biso   1.000  C
  C266     1.0000 0.24323  0.30519  0.18659  Biso   1.000  C
  H176     1.0000 0.26070  0.30340  0.16510  Biso   1.000  H
  C267     1.0000 0.08487  0.51000  0.03237  Biso   1.000  C
  H177     1.0000 0.09890  0.51660  0.05540  Biso   1.000  H
  C268     1.0000 0.04460  0.51020  0.03368  Biso   1.000  C
  H178     1.0000 0.03120  0.51780  0.05680  Biso   1.000  H
  C269     1.0000 0.08440  0.47200  0.01910  Biso   1.000  C
  H179     1.0000 0.09830  0.45300  0.03390  Biso   1.000  H
  C270     1.0000 0.04448  0.47090  0.01900  Biso   1.000  C
  H180     1.0000 0.03100  0.44980  0.03090  Biso   1.000  H
  O37      1.0000 0.32367  0.04175  0.54252  Biso   1.000  O
  O38      1.0000 0.25709  0.04131  0.54200  Biso   1.000  O
  C271     1.0000 0.29024  0.05307  0.55508  Biso   1.000  C
  C272     1.0000 0.28979  0.08271  0.58833  Biso   1.000  C
  C273     1.0000 0.32416  0.09718  0.60491  Biso   1.000  C
  H181     1.0000 0.34860  0.08910  0.59460  Biso   1.000  H
  C274     1.0000 0.32326  0.12335  0.63637  Biso   1.000  C
  H182     1.0000 0.34710  0.13240  0.64730  Biso   1.000  H
  C275     1.0000 0.28758  0.13657  0.65216  Biso   1.000  C
  C276     1.0000 0.25258  0.12200  0.63522  Biso   1.000  C
  H183     1.0000 0.22810  0.13030  0.64520  Biso   1.000  H
  C277     1.0000 0.25374  0.09570  0.60409  Biso   1.000  C
  H184     1.0000 0.23000  0.08630  0.59330  Biso   1.000  H
  C278     1.0000 0.28585  0.16516  0.68612  Biso   1.000  C
  C279     1.0000 0.31193  0.16236  0.71800  Biso   1.000  C
  H185     1.0000 0.33090  0.14210  0.71840  Biso   1.000  H
  C280     1.0000 0.25282  0.22160  0.71753  Biso   1.000  C
  C281     1.0000 0.25677  0.19481  0.68659  Biso   1.000  C
  H186     1.0000 0.23930  0.19660  0.66510  Biso   1.000  H
  C282     1.0000 0.41513  0.99000  0.53237  Biso   1.000  C
  H187     1.0000 0.40110  0.98340  0.55540  Biso   1.000  H
  C283     1.0000 0.45540  0.98980  0.53368  Biso   1.000  C
  H188     1.0000 0.46880  0.98220  0.55680  Biso   1.000  H
  C284     1.0000 0.41560  0.02800  0.51910  Biso   1.000  C
  H189     1.0000 0.40170  0.04700  0.53390  Biso   1.000  H
  C285     1.0000 0.45552  0.02910  0.51900  Biso   1.000  C
  H190     1.0000 0.46900  0.05020  0.53090  Biso   1.000  H
  O39      1.0000 0.82367  0.54175  0.04252  Biso   1.000  O
  O40      1.0000 0.75709  0.54131  0.04200  Biso   1.000  O
  C286     1.0000 0.79024  0.55307  0.05508  Biso   1.000  C
  C287     1.0000 0.78979  0.58271  0.08833  Biso   1.000  C
  C288     1.0000 0.82416  0.59718  0.10491  Biso   1.000  C
  H191     1.0000 0.84860  0.58910  0.09460  Biso   1.000  H
  C289     1.0000 0.82326  0.62335  0.13637  Biso   1.000  C
  H192     1.0000 0.84710  0.63240  0.14730  Biso   1.000  H
  C290     1.0000 0.78758  0.63657  0.15216  Biso   1.000  C
  C291     1.0000 0.75258  0.62200  0.13522  Biso   1.000  C
  H193     1.0000 0.72810  0.63030  0.14520  Biso   1.000  H
  C292     1.0000 0.75374  0.59570  0.10409  Biso   1.000  C
  H194     1.0000 0.73000  0.58630  0.09330  Biso   1.000  H
  C293     1.0000 0.78585  0.66516  0.18612  Biso   1.000  C
  C294     1.0000 0.81193  0.66236  0.21800  Biso   1.000  C
  H195     1.0000 0.83090  0.64210  0.21840  Biso   1.000  H
  C295     1.0000 0.75282  0.72160  0.21753  Biso   1.000  C
  C296     1.0000 0.75677  0.69481  0.18659  Biso   1.000  C
  H196     1.0000 0.73930  0.69660  0.16510  Biso   1.000  H
  C297     1.0000 0.91513  0.49000  0.03237  Biso   1.000  C
  H197     1.0000 0.90110  0.48340  0.05540  Biso   1.000  H
  C298     1.0000 0.95540  0.48980  0.03368  Biso   1.000  C
  H198     1.0000 0.96880  0.48220  0.05680  Biso   1.000  H
  C299     1.0000 0.91560  0.52800  0.01910  Biso   1.000  C
  H199     1.0000 0.90170  0.54700  0.03390  Biso   1.000  H
  C300     1.0000 0.95552  0.52910  0.01900  Biso   1.000  C
  H200     1.0000 0.96900  0.55020  0.03090  Biso   1.000  H
  O41      1.0000 0.04175  0.67633  0.54252  Biso   1.000  O
  O42      1.0000 0.04131  0.74291  0.54200  Biso   1.000  O
  C301     1.0000 0.05307  0.70976  0.55508  Biso   1.000  C
  C302     1.0000 0.08271  0.71021  0.58833  Biso   1.000  C
  C303     1.0000 0.09718  0.67584  0.60491  Biso   1.000  C
  H201     1.0000 0.08910  0.65140  0.59460  Biso   1.000  H
  C304     1.0000 0.12335  0.67674  0.63637  Biso   1.000  C
  H202     1.0000 0.13240  0.65290  0.64730  Biso   1.000  H
  C305     1.0000 0.13657  0.71242  0.65216  Biso   1.000  C
  C306     1.0000 0.12200  0.74742  0.63522  Biso   1.000  C
  H203     1.0000 0.13030  0.77190  0.64520  Biso   1.000  H
  C307     1.0000 0.09570  0.74626  0.60409  Biso   1.000  C
  H204     1.0000 0.08630  0.77000  0.59330  Biso   1.000  H
  C308     1.0000 0.16516  0.71415  0.68612  Biso   1.000  C
  C309     1.0000 0.16236  0.68807  0.71800  Biso   1.000  C
  H205     1.0000 0.14210  0.66910  0.71840  Biso   1.000  H
  C310     1.0000 0.22160  0.74718  0.71753  Biso   1.000  C
  C311     1.0000 0.19481  0.74323  0.68659  Biso   1.000  C
  H206     1.0000 0.19660  0.76070  0.66510  Biso   1.000  H
  C312     1.0000 0.99000  0.58487  0.53237  Biso   1.000  C
  H207     1.0000 0.98340  0.59890  0.55540  Biso   1.000  H
  C313     1.0000 0.98980  0.54460  0.53368  Biso   1.000  C
  H208     1.0000 0.98220  0.53120  0.55680  Biso   1.000  H
  C314     1.0000 0.02800  0.58440  0.51910  Biso   1.000  C
  H209     1.0000 0.04700  0.59830  0.53390  Biso   1.000  H
  C315     1.0000 0.02910  0.54448  0.51900  Biso   1.000  C
  H210     1.0000 0.05020  0.53100  0.53090  Biso   1.000  H
  O43      1.0000 0.54175  0.17633  0.04252  Biso   1.000  O
  O44      1.0000 0.54131  0.24291  0.04200  Biso   1.000  O
  C316     1.0000 0.55307  0.20976  0.05508  Biso   1.000  C
  C317     1.0000 0.58271  0.21021  0.08833  Biso   1.000  C
  C318     1.0000 0.59718  0.17584  0.10491  Biso   1.000  C
  H211     1.0000 0.58910  0.15140  0.09460  Biso   1.000  H
  C319     1.0000 0.62335  0.17674  0.13637  Biso   1.000  C
  H212     1.0000 0.63240  0.15290  0.14730  Biso   1.000  H
  C320     1.0000 0.63657  0.21242  0.15216  Biso   1.000  C
  C321     1.0000 0.62200  0.24742  0.13522  Biso   1.000  C
  H213     1.0000 0.63030  0.27190  0.14520  Biso   1.000  H
  C322     1.0000 0.59570  0.24626  0.10409  Biso   1.000  C
  H214     1.0000 0.58630  0.27000  0.09330  Biso   1.000  H
  C323     1.0000 0.66516  0.21415  0.18612  Biso   1.000  C
  C324     1.0000 0.66236  0.18807  0.21800  Biso   1.000  C
  H215     1.0000 0.64210  0.16910  0.21840  Biso   1.000  H
  C325     1.0000 0.72160  0.24718  0.21753  Biso   1.000  C
  C326     1.0000 0.69481  0.24323  0.18659  Biso   1.000  C
  H216     1.0000 0.69660  0.26070  0.16510  Biso   1.000  H
  C327     1.0000 0.49000  0.08487  0.03237  Biso   1.000  C
  H217     1.0000 0.48340  0.09890  0.05540  Biso   1.000  H
  C328     1.0000 0.48980  0.04460  0.03368  Biso   1.000  C
  H218     1.0000 0.48220  0.03120  0.05680  Biso   1.000  H
  C329     1.0000 0.52800  0.08440  0.01910  Biso   1.000  C
  H219     1.0000 0.54700  0.09830  0.03390  Biso   1.000  H
  C330     1.0000 0.52910  0.04448  0.01900  Biso   1.000  C
  H220     1.0000 0.55020  0.03100  0.03090  Biso   1.000  H
  O45      1.0000 0.95825  0.32367  0.54252  Biso   1.000  O
  O46      1.0000 0.95869  0.25709  0.54200  Biso   1.000  O
  C331     1.0000 0.94693  0.29024  0.55508  Biso   1.000  C
  C332     1.0000 0.91729  0.28979  0.58833  Biso   1.000  C
  C333     1.0000 0.90282  0.32416  0.60491  Biso   1.000  C
  H221     1.0000 0.91090  0.34860  0.59460  Biso   1.000  H
  C334     1.0000 0.87665  0.32326  0.63637  Biso   1.000  C
  H222     1.0000 0.86760  0.34710  0.64730  Biso   1.000  H
  C335     1.0000 0.86343  0.28758  0.65216  Biso   1.000  C
  C336     1.0000 0.87800  0.25258  0.63522  Biso   1.000  C
  H223     1.0000 0.86970  0.22810  0.64520  Biso   1.000  H
  C337     1.0000 0.90430  0.25374  0.60409  Biso   1.000  C
  H224     1.0000 0.91370  0.23000  0.59330  Biso   1.000  H
  C338     1.0000 0.83484  0.28585  0.68612  Biso   1.000  C
  C339     1.0000 0.83764  0.31193  0.71800  Biso   1.000  C
  H225     1.0000 0.85790  0.33090  0.71840  Biso   1.000  H
  C340     1.0000 0.77840  0.25282  0.71753  Biso   1.000  C
  C341     1.0000 0.80519  0.25677  0.68659  Biso   1.000  C
  H226     1.0000 0.80340  0.23930  0.66510  Biso   1.000  H
  C342     1.0000 0.01000  0.41513  0.53237  Biso   1.000  C
  H227     1.0000 0.01660  0.40110  0.55540  Biso   1.000  H
  C343     1.0000 0.01020  0.45540  0.53368  Biso   1.000  C
  H228     1.0000 0.01780  0.46880  0.55680  Biso   1.000  H
  C344     1.0000 0.97200  0.41560  0.51910  Biso   1.000  C
  H229     1.0000 0.95300  0.40170  0.53390  Biso   1.000  H
  C345     1.0000 0.97090  0.45552  0.51900  Biso   1.000  C
  H230     1.0000 0.94980  0.46900  0.53090  Biso   1.000  H
  O47      1.0000 0.45825  0.82367  0.04252  Biso   1.000  O
  O48      1.0000 0.45869  0.75709  0.04200  Biso   1.000  O
  C346     1.0000 0.44693  0.79024  0.05508  Biso   1.000  C
  C347     1.0000 0.41729  0.78979  0.08833  Biso   1.000  C
  C348     1.0000 0.40282  0.82416  0.10491  Biso   1.000  C
  H231     1.0000 0.41090  0.84860  0.09460  Biso   1.000  H
  C349     1.0000 0.37665  0.82326  0.13637  Biso   1.000  C
  H232     1.0000 0.36760  0.84710  0.14730  Biso   1.000  H
  C350     1.0000 0.36343  0.78758  0.15216  Biso   1.000  C
  C351     1.0000 0.37800  0.75258  0.13522  Biso   1.000  C
  H233     1.0000 0.36970  0.72810  0.14520  Biso   1.000  H
  C352     1.0000 0.40430  0.75374  0.10409  Biso   1.000  C
  H234     1.0000 0.41370  0.73000  0.09330  Biso   1.000  H
  C353     1.0000 0.33484  0.78585  0.18612  Biso   1.000  C
  C354     1.0000 0.33764  0.81193  0.21800  Biso   1.000  C
  H235     1.0000 0.35790  0.83090  0.21840  Biso   1.000  H
  C355     1.0000 0.27840  0.75282  0.21753  Biso   1.000  C
  C356     1.0000 0.30519  0.75677  0.18659  Biso   1.000  C
  H236     1.0000 0.30340  0.73930  0.16510  Biso   1.000  H
  C357     1.0000 0.51000  0.91513  0.03237  Biso   1.000  C
  H237     1.0000 0.51660  0.90110  0.05540  Biso   1.000  H
  C358     1.0000 0.51020  0.95540  0.03368  Biso   1.000  C
  H238     1.0000 0.51780  0.96880  0.05680  Biso   1.000  H
  C359     1.0000 0.47200  0.91560  0.01910  Biso   1.000  C
  H239     1.0000 0.45300  0.90170  0.03390  Biso   1.000  H
  C360     1.0000 0.47090  0.95552  0.01900  Biso   1.000  C
  H240     1.0000 0.44980  0.96900  0.03090  Biso   1.000  H
  O49      1.0000 0.32367  0.95825  0.45748  Biso   1.000  O
  O50      1.0000 0.25709  0.95869  0.45800  Biso   1.000  O
  C361     1.0000 0.29024  0.94693  0.44492  Biso   1.000  C
  C362     1.0000 0.28979  0.91729  0.41167  Biso   1.000  C
  C363     1.0000 0.32416  0.90282  0.39509  Biso   1.000  C
  H241     1.0000 0.34860  0.91090  0.40540  Biso   1.000  H
  C364     1.0000 0.32326  0.87665  0.36363  Biso   1.000  C
  H242     1.0000 0.34710  0.86760  0.35270  Biso   1.000  H
  C365     1.0000 0.28758  0.86343  0.34784  Biso   1.000  C
  C366     1.0000 0.25258  0.87800  0.36478  Biso   1.000  C
  H243     1.0000 0.22810  0.86970  0.35480  Biso   1.000  H
  C367     1.0000 0.25374  0.90430  0.39591  Biso   1.000  C
  H244     1.0000 0.23000  0.91370  0.40670  Biso   1.000  H
  C368     1.0000 0.28585  0.83484  0.31388  Biso   1.000  C
  C369     1.0000 0.31193  0.83764  0.28200  Biso   1.000  C
  H245     1.0000 0.33090  0.85790  0.28160  Biso   1.000  H
  C370     1.0000 0.25282  0.77840  0.28247  Biso   1.000  C
  C371     1.0000 0.25677  0.80519  0.31341  Biso   1.000  C
  H246     1.0000 0.23930  0.80340  0.33490  Biso   1.000  H
  C372     1.0000 0.41513  0.01000  0.46763  Biso   1.000  C
  H247     1.0000 0.40110  0.01660  0.44460  Biso   1.000  H
  C373     1.0000 0.45540  0.01020  0.46632  Biso   1.000  C
  H248     1.0000 0.46880  0.01780  0.44320  Biso   1.000  H
  C374     1.0000 0.41560  0.97200  0.48090  Biso   1.000  C
  H249     1.0000 0.40170  0.95300  0.46610  Biso   1.000  H
  C375     1.0000 0.45552  0.97090  0.48100  Biso   1.000  C
  H250     1.0000 0.46900  0.94980  0.46910  Biso   1.000  H
  O51      1.0000 0.82367  0.45825  0.95748  Biso   1.000  O
  O52      1.0000 0.75709  0.45869  0.95800  Biso   1.000  O
  C376     1.0000 0.79024  0.44693  0.94492  Biso   1.000  C
  C377     1.0000 0.78979  0.41729  0.91167  Biso   1.000  C
  C378     1.0000 0.82416  0.40282  0.89509  Biso   1.000  C
  H251     1.0000 0.84860  0.41090  0.90540  Biso   1.000  H
  C379     1.0000 0.82326  0.37665  0.86363  Biso   1.000  C
  H252     1.0000 0.84710  0.36760  0.85270  Biso   1.000  H
  C380     1.0000 0.78758  0.36343  0.84784  Biso   1.000  C
  C381     1.0000 0.75258  0.37800  0.86478  Biso   1.000  C
  H253     1.0000 0.72810  0.36970  0.85480  Biso   1.000  H
  C382     1.0000 0.75374  0.40430  0.89591  Biso   1.000  C
  H254     1.0000 0.73000  0.41370  0.90670  Biso   1.000  H
  C383     1.0000 0.78585  0.33484  0.81388  Biso   1.000  C
  C384     1.0000 0.81193  0.33764  0.78200  Biso   1.000  C
  H255     1.0000 0.83090  0.35790  0.78160  Biso   1.000  H
  C385     1.0000 0.75282  0.27840  0.78247  Biso   1.000  C
  C386     1.0000 0.75677  0.30519  0.81341  Biso   1.000  C
  H256     1.0000 0.73930  0.30340  0.83490  Biso   1.000  H
  C387     1.0000 0.91513  0.51000  0.96763  Biso   1.000  C
  H257     1.0000 0.90110  0.51660  0.94460  Biso   1.000  H
  C388     1.0000 0.95540  0.51020  0.96632  Biso   1.000  C
  H258     1.0000 0.96880  0.51780  0.94320  Biso   1.000  H
  C389     1.0000 0.91560  0.47200  0.98090  Biso   1.000  C
  H259     1.0000 0.90170  0.45300  0.96610  Biso   1.000  H
  C390     1.0000 0.95552  0.47090  0.98100  Biso   1.000  C
  H260     1.0000 0.96900  0.44980  0.96910  Biso   1.000  H
  O53      1.0000 0.67633  0.04175  0.45748  Biso   1.000  O
  O54      1.0000 0.74291  0.04131  0.45800  Biso   1.000  O
  C391     1.0000 0.70976  0.05307  0.44492  Biso   1.000  C
  C392     1.0000 0.71021  0.08271  0.41167  Biso   1.000  C
  C393     1.0000 0.67584  0.09718  0.39509  Biso   1.000  C
  H261     1.0000 0.65140  0.08910  0.40540  Biso   1.000  H
  C394     1.0000 0.67674  0.12335  0.36363  Biso   1.000  C
  H262     1.0000 0.65290  0.13240  0.35270  Biso   1.000  H
  C395     1.0000 0.71242  0.13657  0.34784  Biso   1.000  C
  C396     1.0000 0.74742  0.12200  0.36478  Biso   1.000  C
  H263     1.0000 0.77190  0.13030  0.35480  Biso   1.000  H
  C397     1.0000 0.74626  0.09570  0.39591  Biso   1.000  C
  H264     1.0000 0.77000  0.08630  0.40670  Biso   1.000  H
  C398     1.0000 0.71415  0.16516  0.31388  Biso   1.000  C
  C399     1.0000 0.68807  0.16236  0.28200  Biso   1.000  C
  H265     1.0000 0.66910  0.14210  0.28160  Biso   1.000  H
  C400     1.0000 0.74718  0.22160  0.28247  Biso   1.000  C
  C401     1.0000 0.74323  0.19481  0.31341  Biso   1.000  C
  H266     1.0000 0.76070  0.19660  0.33490  Biso   1.000  H
  C402     1.0000 0.58487  0.99000  0.46763  Biso   1.000  C
  H267     1.0000 0.59890  0.98340  0.44460  Biso   1.000  H
  C403     1.0000 0.54460  0.98980  0.46632  Biso   1.000  C
  H268     1.0000 0.53120  0.98220  0.44320  Biso   1.000  H
  C404     1.0000 0.58440  0.02800  0.48090  Biso   1.000  C
  H269     1.0000 0.59830  0.04700  0.46610  Biso   1.000  H
  C405     1.0000 0.54448  0.02910  0.48100  Biso   1.000  C
  H270     1.0000 0.53100  0.05020  0.46910  Biso   1.000  H
  O55      1.0000 0.17633  0.54175  0.95748  Biso   1.000  O
  O56      1.0000 0.24291  0.54131  0.95800  Biso   1.000  O
  C406     1.0000 0.20976  0.55307  0.94492  Biso   1.000  C
  C407     1.0000 0.21021  0.58271  0.91167  Biso   1.000  C
  C408     1.0000 0.17584  0.59718  0.89509  Biso   1.000  C
  H271     1.0000 0.15140  0.58910  0.90540  Biso   1.000  H
  C409     1.0000 0.17674  0.62335  0.86363  Biso   1.000  C
  H272     1.0000 0.15290  0.63240  0.85270  Biso   1.000  H
  C410     1.0000 0.21242  0.63657  0.84784  Biso   1.000  C
  C411     1.0000 0.24742  0.62200  0.86478  Biso   1.000  C
  H273     1.0000 0.27190  0.63030  0.85480  Biso   1.000  H
  C412     1.0000 0.24626  0.59570  0.89591  Biso   1.000  C
  H274     1.0000 0.27000  0.58630  0.90670  Biso   1.000  H
  C413     1.0000 0.21415  0.66516  0.81388  Biso   1.000  C
  C414     1.0000 0.18807  0.66236  0.78200  Biso   1.000  C
  H275     1.0000 0.16910  0.64210  0.78160  Biso   1.000  H
  C415     1.0000 0.24718  0.72160  0.78247  Biso   1.000  C
  C416     1.0000 0.24323  0.69481  0.81341  Biso   1.000  C
  H276     1.0000 0.26070  0.69660  0.83490  Biso   1.000  H
  C417     1.0000 0.08487  0.49000  0.96763  Biso   1.000  C
  H277     1.0000 0.09890  0.48340  0.94460  Biso   1.000  H
  C418     1.0000 0.04460  0.48980  0.96632  Biso   1.000  C
  H278     1.0000 0.03120  0.48220  0.94320  Biso   1.000  H
  C419     1.0000 0.08440  0.52800  0.98090  Biso   1.000  C
  H279     1.0000 0.09830  0.54700  0.96610  Biso   1.000  H
  C420     1.0000 0.04448  0.52910  0.98100  Biso   1.000  C
  H280     1.0000 0.03100  0.55020  0.96910  Biso   1.000  H
  O57      1.0000 0.95825  0.67633  0.45748  Biso   1.000  O
  O58      1.0000 0.95869  0.74291  0.45800  Biso   1.000  O
  C421     1.0000 0.94693  0.70976  0.44492  Biso   1.000  C
  C422     1.0000 0.91729  0.71021  0.41167  Biso   1.000  C
  C423     1.0000 0.90282  0.67584  0.39509  Biso   1.000  C
  H281     1.0000 0.91090  0.65140  0.40540  Biso   1.000  H
  C424     1.0000 0.87665  0.67674  0.36363  Biso   1.000  C
  H282     1.0000 0.86760  0.65290  0.35270  Biso   1.000  H
  C425     1.0000 0.86343  0.71242  0.34784  Biso   1.000  C
  C426     1.0000 0.87800  0.74742  0.36478  Biso   1.000  C
  H283     1.0000 0.86970  0.77190  0.35480  Biso   1.000  H
  C427     1.0000 0.90430  0.74626  0.39591  Biso   1.000  C
  H284     1.0000 0.91370  0.77000  0.40670  Biso   1.000  H
  C428     1.0000 0.83484  0.71415  0.31388  Biso   1.000  C
  C429     1.0000 0.83764  0.68807  0.28200  Biso   1.000  C
  H285     1.0000 0.85790  0.66910  0.28160  Biso   1.000  H
  C430     1.0000 0.77840  0.74718  0.28247  Biso   1.000  C
  C431     1.0000 0.80519  0.74323  0.31341  Biso   1.000  C
  H286     1.0000 0.80340  0.76070  0.33490  Biso   1.000  H
  C432     1.0000 0.01000  0.58487  0.46763  Biso   1.000  C
  H287     1.0000 0.01660  0.59890  0.44460  Biso   1.000  H
  C433     1.0000 0.01020  0.54460  0.46632  Biso   1.000  C
  H288     1.0000 0.01780  0.53120  0.44320  Biso   1.000  H
  C434     1.0000 0.97200  0.58440  0.48090  Biso   1.000  C
  H289     1.0000 0.95300  0.59830  0.46610  Biso   1.000  H
  C435     1.0000 0.97090  0.54448  0.48100  Biso   1.000  C
  H290     1.0000 0.94980  0.53100  0.46910  Biso   1.000  H
  O59      1.0000 0.45825  0.17633  0.95748  Biso   1.000  O
  O60      1.0000 0.45869  0.24291  0.95800  Biso   1.000  O
  C436     1.0000 0.44693  0.20976  0.94492  Biso   1.000  C
  C437     1.0000 0.41729  0.21021  0.91167  Biso   1.000  C
  C438     1.0000 0.40282  0.17584  0.89509  Biso   1.000  C
  H291     1.0000 0.41090  0.15140  0.90540  Biso   1.000  H
  C439     1.0000 0.37665  0.17674  0.86363  Biso   1.000  C
  H292     1.0000 0.36760  0.15290  0.85270  Biso   1.000  H
  C440     1.0000 0.36343  0.21242  0.84784  Biso   1.000  C
  C441     1.0000 0.37800  0.24742  0.86478  Biso   1.000  C
  H293     1.0000 0.36970  0.27190  0.85480  Biso   1.000  H
  C442     1.0000 0.40430  0.24626  0.89591  Biso   1.000  C
  H294     1.0000 0.41370  0.27000  0.90670  Biso   1.000  H
  C443     1.0000 0.33484  0.21415  0.81388  Biso   1.000  C
  C444     1.0000 0.33764  0.18807  0.78200  Biso   1.000  C
  H295     1.0000 0.35790  0.16910  0.78160  Biso   1.000  H
  C445     1.0000 0.27840  0.24718  0.78247  Biso   1.000  C
  C446     1.0000 0.30519  0.24323  0.81341  Biso   1.000  C
  H296     1.0000 0.30340  0.26070  0.83490  Biso   1.000  H
  C447     1.0000 0.51000  0.08487  0.96763  Biso   1.000  C
  H297     1.0000 0.51660  0.09890  0.94460  Biso   1.000  H
  C448     1.0000 0.51020  0.04460  0.96632  Biso   1.000  C
  H298     1.0000 0.51780  0.03120  0.94320  Biso   1.000  H
  C449     1.0000 0.47200  0.08440  0.98090  Biso   1.000  C
  H299     1.0000 0.45300  0.09830  0.96610  Biso   1.000  H
  C450     1.0000 0.47090  0.04448  0.98100  Biso   1.000  C
  H300     1.0000 0.44980  0.03100  0.96910  Biso   1.000  H
  O61      1.0000 0.04175  0.32367  0.45748  Biso   1.000  O
  O62      1.0000 0.04131  0.25709  0.45800  Biso   1.000  O
  C451     1.0000 0.05307  0.29024  0.44492  Biso   1.000  C
  C452     1.0000 0.08271  0.28979  0.41167  Biso   1.000  C
  C453     1.0000 0.09718  0.32416  0.39509  Biso   1.000  C
  H301     1.0000 0.08910  0.34860  0.40540  Biso   1.000  H
  C454     1.0000 0.12335  0.32326  0.36363  Biso   1.000  C
  H302     1.0000 0.13240  0.34710  0.35270  Biso   1.000  H
  C455     1.0000 0.13657  0.28758  0.34784  Biso   1.000  C
  C456     1.0000 0.12200  0.25258  0.36478  Biso   1.000  C
  H303     1.0000 0.13030  0.22810  0.35480  Biso   1.000  H
  C457     1.0000 0.09570  0.25374  0.39591  Biso   1.000  C
  H304     1.0000 0.08630  0.23000  0.40670  Biso   1.000  H
  C458     1.0000 0.16516  0.28585  0.31388  Biso   1.000  C
  C459     1.0000 0.16236  0.31193  0.28200  Biso   1.000  C
  H305     1.0000 0.14210  0.33090  0.28160  Biso   1.000  H
  C460     1.0000 0.22160  0.25282  0.28247  Biso   1.000  C
  C461     1.0000 0.19481  0.25677  0.31341  Biso   1.000  C
  H306     1.0000 0.19660  0.23930  0.33490  Biso   1.000  H
  C462     1.0000 0.99000  0.41513  0.46763  Biso   1.000  C
  H307     1.0000 0.98340  0.40110  0.44460  Biso   1.000  H
  C463     1.0000 0.98980  0.45540  0.46632  Biso   1.000  C
  H308     1.0000 0.98220  0.46880  0.44320  Biso   1.000  H
  C464     1.0000 0.02800  0.41560  0.48090  Biso   1.000  C
  H309     1.0000 0.04700  0.40170  0.46610  Biso   1.000  H
  C465     1.0000 0.02910  0.45552  0.48100  Biso   1.000  C
  H310     1.0000 0.05020  0.46900  0.46910  Biso   1.000  H
  O63      1.0000 0.54175  0.82367  0.95748  Biso   1.000  O
  O64      1.0000 0.54131  0.75709  0.95800  Biso   1.000  O
  C466     1.0000 0.55307  0.79024  0.94492  Biso   1.000  C
  C467     1.0000 0.58271  0.78979  0.91167  Biso   1.000  C
  C468     1.0000 0.59718  0.82416  0.89509  Biso   1.000  C
  H311     1.0000 0.58910  0.84860  0.90540  Biso   1.000  H
  C469     1.0000 0.62335  0.82326  0.86363  Biso   1.000  C
  H312     1.0000 0.63240  0.84710  0.85270  Biso   1.000  H
  C470     1.0000 0.63657  0.78758  0.84784  Biso   1.000  C
  C471     1.0000 0.62200  0.75258  0.86478  Biso   1.000  C
  H313     1.0000 0.63030  0.72810  0.85480  Biso   1.000  H
  C472     1.0000 0.59570  0.75374  0.89591  Biso   1.000  C
  H314     1.0000 0.58630  0.73000  0.90670  Biso   1.000  H
  C473     1.0000 0.66516  0.78585  0.81388  Biso   1.000  C
  C474     1.0000 0.66236  0.81193  0.78200  Biso   1.000  C
  H315     1.0000 0.64210  0.83090  0.78160  Biso   1.000  H
  C475     1.0000 0.72160  0.75282  0.78247  Biso   1.000  C
  C476     1.0000 0.69481  0.75677  0.81341  Biso   1.000  C
  H316     1.0000 0.69660  0.73930  0.83490  Biso   1.000  H
  C477     1.0000 0.49000  0.91513  0.96763  Biso   1.000  C
  H317     1.0000 0.48340  0.90110  0.94460  Biso   1.000  H
  C478     1.0000 0.48980  0.95540  0.96632  Biso   1.000  C
  H318     1.0000 0.48220  0.96880  0.94320  Biso   1.000  H
  C479     1.0000 0.52800  0.91560  0.98090  Biso   1.000  C
  H319     1.0000 0.54700  0.90170  0.96610  Biso   1.000  H
  C480     1.0000 0.52910  0.95552  0.98100  Biso   1.000  C
  H320     1.0000 0.55020  0.96900  0.96910  Biso   1.000  H
  Zn1      1.0000 0.33389  0.00000  0.50000  Biso   1.000  Zn
  Zn2      1.0000 0.24570  0.00000  0.50000  Biso   1.000  Zn
  N1       1.0000 0.39415  0.00000  0.50000  Biso   1.000  N
  C481     1.0000 0.47766  0.00000  0.50000  Biso   1.000  C
  Zn3      1.0000 0.83389  0.50000  0.00000  Biso   1.000  Zn
  Zn4      1.0000 0.74570  0.50000  0.00000  Biso   1.000  Zn
  N2       1.0000 0.89415  0.50000  0.00000  Biso   1.000  N
  C482     1.0000 0.97766  0.50000  0.00000  Biso   1.000  C
  Zn5      1.0000 0.66611  0.00000  0.50000  Biso   1.000  Zn
  Zn6      1.0000 0.75430  0.00000  0.50000  Biso   1.000  Zn
  N3       1.0000 0.60585  0.00000  0.50000  Biso   1.000  N
  C483     1.0000 0.52234  0.00000  0.50000  Biso   1.000  C
  Zn7      1.0000 0.16611  0.50000  0.00000  Biso   1.000  Zn
  Zn8      1.0000 0.25430  0.50000  0.00000  Biso   1.000  Zn
  N4       1.0000 0.10585  0.50000  0.00000  Biso   1.000  N
  C484     1.0000 0.02234  0.50000  0.00000  Biso   1.000  C
  Zn9      1.0000 0.00000  0.33389  0.50000  Biso   1.000  Zn
  Zn10     1.0000 0.00000  0.24570  0.50000  Biso   1.000  Zn
  N5       1.0000 0.00000  0.39415  0.50000  Biso   1.000  N
  C485     1.0000 0.00000  0.47766  0.50000  Biso   1.000  C
  Zn11     1.0000 0.50000  0.83389  0.00000  Biso   1.000  Zn
  Zn12     1.0000 0.50000  0.74570  0.00000  Biso   1.000  Zn
  N6       1.0000 0.50000  0.89415  0.00000  Biso   1.000  N
  C486     1.0000 0.50000  0.97766  0.00000  Biso   1.000  C
  Zn13     1.0000 0.00000  0.66611  0.50000  Biso   1.000  Zn
  Zn14     1.0000 0.00000  0.75430  0.50000  Biso   1.000  Zn
  N7       1.0000 0.00000  0.60585  0.50000  Biso   1.000  N
  C487     1.0000 0.00000  0.52234  0.50000  Biso   1.000  C
  Zn15     1.0000 0.50000  0.16611  0.00000  Biso   1.000  Zn
  Zn16     1.0000 0.50000  0.25430  0.00000  Biso   1.000  Zn
  N8       1.0000 0.50000  0.10585  0.00000  Biso   1.000  N
  C488     1.0000 0.50000  0.02234  0.00000  Biso   1.000  C
  C489     1.0000 0.31030  0.18970  0.25000  Biso   1.000  C
  C490     1.0000 0.28013  0.21987  0.25000  Biso   1.000  C
  C491     1.0000 0.68970  0.81030  0.25000  Biso   1.000  C
  C492     1.0000 0.71987  0.78013  0.25000  Biso   1.000  C
  C493     1.0000 0.81030  0.31030  0.25000  Biso   1.000  C
  C494     1.0000 0.78013  0.28013  0.25000  Biso   1.000  C
  C495     1.0000 0.18970  0.68970  0.25000  Biso   1.000  C
  C496     1.0000 0.21987  0.71987  0.25000  Biso   1.000  C
  C497     1.0000 0.68970  0.18970  0.75000  Biso   1.000  C
  C498     1.0000 0.71987  0.21987  0.75000  Biso   1.000  C
  C499     1.0000 0.31030  0.81030  0.75000  Biso   1.000  C
  C500     1.0000 0.28013  0.78013  0.75000  Biso   1.000  C
  C501     1.0000 0.18970  0.31030  0.75000  Biso   1.000  C
  C502     1.0000 0.21987  0.28013  0.75000  Biso   1.000  C
  C503     1.0000 0.81030  0.68970  0.75000  Biso   1.000  C
  C504     1.0000 0.78013  0.71987  0.75000  Biso   1.000  C
  C505     1.0000 0.68970  0.81030  0.75000  Biso   1.000  C
  C506     1.0000 0.71987  0.78013  0.75000  Biso   1.000  C
  C507     1.0000 0.18970  0.31030  0.25000  Biso   1.000  C
  C508     1.0000 0.21987  0.28013  0.25000  Biso   1.000  C
  C509     1.0000 0.31030  0.18970  0.75000  Biso   1.000  C
  C510     1.0000 0.28013  0.21987  0.75000  Biso   1.000  C
  C511     1.0000 0.18970  0.68970  0.75000  Biso   1.000  C
  C512     1.0000 0.21987  0.71987  0.75000  Biso   1.000  C
  C513     1.0000 0.81030  0.31030  0.75000  Biso   1.000  C
  C514     1.0000 0.78013  0.28013  0.75000  Biso   1.000  C
  C515     1.0000 0.31030  0.81030  0.25000  Biso   1.000  C
  C516     1.0000 0.28013  0.78013  0.25000  Biso   1.000  C
  C517     1.0000 0.68970  0.18970  0.25000  Biso   1.000  C
  C518     1.0000 0.71987  0.21987  0.25000  Biso   1.000  C
  C519     1.0000 0.81030  0.68970  0.25000  Biso   1.000  C
  C520     1.0000 0.78013  0.71987  0.25000  Biso   1.000  C
