data_image0
_cell_length_a       35.7365
_cell_length_b       15.061
_cell_length_c       30.9345
_cell_angle_alpha    90
_cell_angle_beta     104.141
_cell_angle_gamma    90

_symmetry_space_group_name_H-M    "P 1"
_symmetry_int_tables_number       1

loop_
  _symmetry_equiv_pos_as_xyz
  'x, y, z'

loop_
  _atom_site_label
  _atom_site_occupancy
  _atom_site_fract_x
  _atom_site_fract_y
  _atom_site_fract_z
  _atom_site_thermal_displace_type
  _atom_site_B_iso_or_equiv
  _atom_site_type_symbol
  I1       1.0000 0.48926  0.87980  0.37707  Biso   1.000  I
  Zn1      1.0000 0.43111  0.89310  0.40568  Biso   1.000  Zn
  I2       1.0000 0.39773  0.76742  0.43531  Biso   1.000  I
  N1       1.0000 0.39030  0.95140  0.35340  Biso   1.000  N
  C1       1.0000 0.35640  0.91510  0.33200  Biso   1.000  C
  H1       1.0000 0.35010  0.85700  0.33980  Biso   1.000  H
  C2       1.0000 0.32980  0.96220  0.29750  Biso   1.000  C
  H2       1.0000 0.30550  0.93730  0.28310  Biso   1.000  H
  C3       1.0000 0.34050  0.04450  0.28620  Biso   1.000  C
  C4       1.0000 0.37630  0.08200  0.30800  Biso   1.000  C
  H3       1.0000 0.38400  0.13900  0.30030  Biso   1.000  H
  C5       1.0000 0.39980  0.03090  0.34170  Biso   1.000  C
  H4       1.0000 0.42410  0.05480  0.35700  Biso   1.000  H
  C6       1.0000 0.31280  0.10010  0.25240  Biso   1.000  C
  N2       1.0000 0.28290  0.05750  0.22610  Biso   1.000  N
  C7       1.0000 0.26010  0.10960  0.19510  Biso   1.000  C
  N3       1.0000 0.26460  0.19750  0.19100  Biso   1.000  N
  C8       1.0000 0.29490  0.23250  0.22020  Biso   1.000  C
  N4       1.0000 0.32040  0.18560  0.25020  Biso   1.000  N
  N5       1.0000 0.31380  0.51260  0.22640  Biso   1.000  N
  C9       1.0000 0.28200  0.47780  0.19930  Biso   1.000  C
  H5       1.0000 0.26340  0.51690  0.18200  Biso   1.000  H
  C10      1.0000 0.27550  0.39020  0.19570  Biso   1.000  C
  H6       1.0000 0.25300  0.36880  0.17520  Biso   1.000  H
  C11      1.0000 0.30170  0.32890  0.22180  Biso   1.000  C
  C12      1.0000 0.33360  0.36590  0.25030  Biso   1.000  C
  H7       1.0000 0.35210  0.32950  0.26970  Biso   1.000  H
  C13      1.0000 0.33810  0.45550  0.25020  Biso   1.000  C
  H8       1.0000 0.36100  0.47910  0.26910  Biso   1.000  H
  I3       1.0000 0.37408  0.67253  0.30508  Biso   1.000  I
  Zn2      1.0000 0.32674  0.64804  0.22962  Biso   1.000  Zn
  I4       1.0000 0.26430  0.73501  0.20083  Biso   1.000  I
  N6       1.0000 0.16590  0.97410  0.10780  Biso   1.000  N
  C14      1.0000 0.17210  0.06160  0.10310  Biso   1.000  C
  H9       1.0000 0.15530  0.09200  0.07910  Biso   1.000  H
  C15      1.0000 0.20100  0.10930  0.13060  Biso   1.000  C
  H10      1.0000 0.20310  0.17160  0.12710  Biso   1.000  H
  C16      1.0000 0.22700  0.06340  0.16380  Biso   1.000  C
  C17      1.0000 0.22160  0.97580  0.16890  Biso   1.000  C
  H11      1.0000 0.23880  0.94360  0.19170  Biso   1.000  H
  C18      1.0000 0.19080  0.93290  0.14060  Biso   1.000  C
  H12      1.0000 0.18730  0.87130  0.14500  Biso   1.000  H
  I5       1.0000 0.13739  0.91645  0.98812  Biso   1.000  I
  I6       1.0000 0.10866  0.76664  0.10353  Biso   1.000  I
  Zn3      1.0000 0.12180  0.90777  0.06417  Biso   1.000  Zn
  N7       1.0000 0.07480  0.98860  0.06220  Biso   1.000  N
  C19      1.0000 0.05930  0.99200  0.09690  Biso   1.000  C
  H13      1.0000 0.07060  0.95750  0.12250  Biso   1.000  H
  C20      1.0000 0.02750  0.04360  0.09770  Biso   1.000  C
  H14      1.0000 0.01660  0.04180  0.12280  Biso   1.000  H
  C21      1.0000 0.01180  0.09690  0.06240  Biso   1.000  C
  C22      1.0000 0.02800  0.09460  0.02580  Biso   1.000  C
  H15      1.0000 0.01790  0.13050  0.00040  Biso   1.000  H
  C23      1.0000 0.05810  0.04090  0.02700  Biso   1.000  C
  H16      1.0000 0.06850  0.03930  0.00150  Biso   1.000  H
  C24      1.0000 0.97960  0.15830  0.06250  Biso   1.000  C
  N8       1.0000 0.95970  0.14750  0.09400  Biso   1.000  N
  C25      1.0000 0.93090  0.20420  0.09250  Biso   1.000  C
  N9       1.0000 0.92290  0.27390  0.06490  Biso   1.000  N
  C26      1.0000 0.94510  0.28000  0.03590  Biso   1.000  C
  N10      1.0000 0.97230  0.22180  0.03200  Biso   1.000  N
  N11      1.0000 0.93570  0.50860  0.95150  Biso   1.000  N
  C27      1.0000 0.96530  0.45310  0.95650  Biso   1.000  C
  H17      1.0000 0.98460  0.46480  0.94080  Biso   1.000  H
  C28      1.0000 0.96920  0.37880  0.98360  Biso   1.000  C
  H18      1.0000 0.99080  0.34070  0.98670  Biso   1.000  H
  C29      1.0000 0.94010  0.36020  0.00710  Biso   1.000  C
  C30      1.0000 0.91070  0.41780  0.00240  Biso   1.000  C
  H19      1.0000 0.89090  0.40890  0.01760  Biso   1.000  H
  C31      1.0000 0.90970  0.49190  0.97430  Biso   1.000  C
  H20      1.0000 0.88890  0.53260  0.97160  Biso   1.000  H
  N12      1.0000 0.85860  0.16280  0.18250  Biso   1.000  N
  C32      1.0000 0.84780  0.21360  0.14650  Biso   1.000  C
  H21      1.0000 0.82300  0.24040  0.14050  Biso   1.000  H
  C33      1.0000 0.87060  0.22930  0.11750  Biso   1.000  C
  H22      1.0000 0.86180  0.26800  0.09290  Biso   1.000  H
  C34      1.0000 0.90640  0.18890  0.12390  Biso   1.000  C
  C35      1.0000 0.91800  0.13430  0.15980  Biso   1.000  C
  H23      1.0000 0.94230  0.10550  0.16580  Biso   1.000  H
  C36      1.0000 0.89310  0.12200  0.18760  Biso   1.000  C
  H24      1.0000 0.90090  0.08190  0.21190  Biso   1.000  H
  I7       1.0000 0.38550  0.76380  0.44310  Biso   1.000  I
  I8       1.0000 0.47370  0.85340  0.38370  Biso   1.000  I
  Zn4      1.0000 0.42020  0.87630  0.40710  Biso   1.000  Zn
  I9       1.0000 0.98926  0.37980  0.37707  Biso   1.000  I
  Zn5      1.0000 0.93111  0.39310  0.40568  Biso   1.000  Zn
  I10      1.0000 0.89773  0.26742  0.43531  Biso   1.000  I
  N13      1.0000 0.89030  0.45140  0.35340  Biso   1.000  N
  C37      1.0000 0.85640  0.41510  0.33200  Biso   1.000  C
  H25      1.0000 0.85010  0.35700  0.33980  Biso   1.000  H
  C38      1.0000 0.82980  0.46220  0.29750  Biso   1.000  C
  H26      1.0000 0.80550  0.43730  0.28310  Biso   1.000  H
  C39      1.0000 0.84050  0.54450  0.28620  Biso   1.000  C
  C40      1.0000 0.87630  0.58200  0.30800  Biso   1.000  C
  H27      1.0000 0.88400  0.63900  0.30030  Biso   1.000  H
  C41      1.0000 0.89980  0.53090  0.34170  Biso   1.000  C
  H28      1.0000 0.92410  0.55480  0.35700  Biso   1.000  H
  C42      1.0000 0.81280  0.60010  0.25240  Biso   1.000  C
  N14      1.0000 0.78290  0.55750  0.22610  Biso   1.000  N
  C43      1.0000 0.76010  0.60960  0.19510  Biso   1.000  C
  N15      1.0000 0.76460  0.69750  0.19100  Biso   1.000  N
  C44      1.0000 0.79490  0.73250  0.22020  Biso   1.000  C
  N16      1.0000 0.82040  0.68560  0.25020  Biso   1.000  N
  N17      1.0000 0.81380  0.01260  0.22640  Biso   1.000  N
  C45      1.0000 0.78200  0.97780  0.19930  Biso   1.000  C
  H29      1.0000 0.76340  0.01690  0.18200  Biso   1.000  H
  C46      1.0000 0.77550  0.89020  0.19570  Biso   1.000  C
  H30      1.0000 0.75300  0.86880  0.17520  Biso   1.000  H
  C47      1.0000 0.80170  0.82890  0.22180  Biso   1.000  C
  C48      1.0000 0.83360  0.86590  0.25030  Biso   1.000  C
  H31      1.0000 0.85210  0.82950  0.26970  Biso   1.000  H
  C49      1.0000 0.83810  0.95550  0.25020  Biso   1.000  C
  H32      1.0000 0.86100  0.97910  0.26910  Biso   1.000  H
  I11      1.0000 0.87408  0.17253  0.30508  Biso   1.000  I
  Zn6      1.0000 0.82674  0.14804  0.22962  Biso   1.000  Zn
  I12      1.0000 0.76430  0.23501  0.20083  Biso   1.000  I
  N18      1.0000 0.66590  0.47410  0.10780  Biso   1.000  N
  C50      1.0000 0.67210  0.56160  0.10310  Biso   1.000  C
  H33      1.0000 0.65530  0.59200  0.07910  Biso   1.000  H
  C51      1.0000 0.70100  0.60930  0.13060  Biso   1.000  C
  H34      1.0000 0.70310  0.67160  0.12710  Biso   1.000  H
  C52      1.0000 0.72700  0.56340  0.16380  Biso   1.000  C
  C53      1.0000 0.72160  0.47580  0.16890  Biso   1.000  C
  H35      1.0000 0.73880  0.44360  0.19170  Biso   1.000  H
  C54      1.0000 0.69080  0.43290  0.14060  Biso   1.000  C
  H36      1.0000 0.68730  0.37130  0.14500  Biso   1.000  H
  I13      1.0000 0.63739  0.41645  0.98812  Biso   1.000  I
  I14      1.0000 0.60866  0.26664  0.10353  Biso   1.000  I
  Zn7      1.0000 0.62180  0.40777  0.06417  Biso   1.000  Zn
  N19      1.0000 0.57480  0.48860  0.06220  Biso   1.000  N
  C55      1.0000 0.55930  0.49200  0.09690  Biso   1.000  C
  H37      1.0000 0.57060  0.45750  0.12250  Biso   1.000  H
  C56      1.0000 0.52750  0.54360  0.09770  Biso   1.000  C
  H38      1.0000 0.51660  0.54180  0.12280  Biso   1.000  H
  C57      1.0000 0.51180  0.59690  0.06240  Biso   1.000  C
  C58      1.0000 0.52800  0.59460  0.02580  Biso   1.000  C
  H39      1.0000 0.51790  0.63050  0.00040  Biso   1.000  H
  C59      1.0000 0.55810  0.54090  0.02700  Biso   1.000  C
  H40      1.0000 0.56850  0.53930  0.00150  Biso   1.000  H
  C60      1.0000 0.47960  0.65830  0.06250  Biso   1.000  C
  N20      1.0000 0.45970  0.64750  0.09400  Biso   1.000  N
  C61      1.0000 0.43090  0.70420  0.09250  Biso   1.000  C
  N21      1.0000 0.42290  0.77390  0.06490  Biso   1.000  N
  C62      1.0000 0.44510  0.78000  0.03590  Biso   1.000  C
  N22      1.0000 0.47230  0.72180  0.03200  Biso   1.000  N
  N23      1.0000 0.43570  0.00860  0.95150  Biso   1.000  N
  C63      1.0000 0.46530  0.95310  0.95650  Biso   1.000  C
  H41      1.0000 0.48460  0.96480  0.94080  Biso   1.000  H
  C64      1.0000 0.46920  0.87880  0.98360  Biso   1.000  C
  H42      1.0000 0.49080  0.84070  0.98670  Biso   1.000  H
  C65      1.0000 0.44010  0.86020  0.00710  Biso   1.000  C
  C66      1.0000 0.41070  0.91780  0.00240  Biso   1.000  C
  H43      1.0000 0.39090  0.90890  0.01760  Biso   1.000  H
  C67      1.0000 0.40970  0.99190  0.97430  Biso   1.000  C
  H44      1.0000 0.38890  0.03260  0.97160  Biso   1.000  H
  N24      1.0000 0.35860  0.66280  0.18250  Biso   1.000  N
  C68      1.0000 0.34780  0.71360  0.14650  Biso   1.000  C
  H45      1.0000 0.32300  0.74040  0.14050  Biso   1.000  H
  C69      1.0000 0.37060  0.72930  0.11750  Biso   1.000  C
  H46      1.0000 0.36180  0.76800  0.09290  Biso   1.000  H
  C70      1.0000 0.40640  0.68890  0.12390  Biso   1.000  C
  C71      1.0000 0.41800  0.63430  0.15980  Biso   1.000  C
  H47      1.0000 0.44230  0.60550  0.16580  Biso   1.000  H
  C72      1.0000 0.39310  0.62200  0.18760  Biso   1.000  C
  H48      1.0000 0.40090  0.58190  0.21190  Biso   1.000  H
  I15      1.0000 0.88550  0.26380  0.44310  Biso   1.000  I
  I16      1.0000 0.97370  0.35340  0.38370  Biso   1.000  I
  Zn8      1.0000 0.92020  0.37630  0.40710  Biso   1.000  Zn
  I17      1.0000 0.48926  0.12020  0.87707  Biso   1.000  I
  Zn9      1.0000 0.43111  0.10690  0.90568  Biso   1.000  Zn
  I18      1.0000 0.39773  0.23258  0.93531  Biso   1.000  I
  N25      1.0000 0.39030  0.04860  0.85340  Biso   1.000  N
  C73      1.0000 0.35640  0.08490  0.83200  Biso   1.000  C
  H49      1.0000 0.35010  0.14300  0.83980  Biso   1.000  H
  C74      1.0000 0.32980  0.03780  0.79750  Biso   1.000  C
  H50      1.0000 0.30550  0.06270  0.78310  Biso   1.000  H
  C75      1.0000 0.34050  0.95550  0.78620  Biso   1.000  C
  C76      1.0000 0.37630  0.91800  0.80800  Biso   1.000  C
  H51      1.0000 0.38400  0.86100  0.80030  Biso   1.000  H
  C77      1.0000 0.39980  0.96910  0.84170  Biso   1.000  C
  H52      1.0000 0.42410  0.94520  0.85700  Biso   1.000  H
  C78      1.0000 0.31280  0.89990  0.75240  Biso   1.000  C
  N26      1.0000 0.28290  0.94250  0.72610  Biso   1.000  N
  C79      1.0000 0.26010  0.89040  0.69510  Biso   1.000  C
  N27      1.0000 0.26460  0.80250  0.69100  Biso   1.000  N
  C80      1.0000 0.29490  0.76750  0.72020  Biso   1.000  C
  N28      1.0000 0.32040  0.81440  0.75020  Biso   1.000  N
  N29      1.0000 0.31380  0.48740  0.72640  Biso   1.000  N
  C81      1.0000 0.28200  0.52220  0.69930  Biso   1.000  C
  H53      1.0000 0.26340  0.48310  0.68200  Biso   1.000  H
  C82      1.0000 0.27550  0.60980  0.69570  Biso   1.000  C
  H54      1.0000 0.25300  0.63120  0.67520  Biso   1.000  H
  C83      1.0000 0.30170  0.67110  0.72180  Biso   1.000  C
  C84      1.0000 0.33360  0.63410  0.75030  Biso   1.000  C
  H55      1.0000 0.35210  0.67050  0.76970  Biso   1.000  H
  C85      1.0000 0.33810  0.54450  0.75020  Biso   1.000  C
  H56      1.0000 0.36100  0.52090  0.76910  Biso   1.000  H
  I19      1.0000 0.37408  0.32747  0.80508  Biso   1.000  I
  Zn10     1.0000 0.32674  0.35196  0.72962  Biso   1.000  Zn
  I20      1.0000 0.26430  0.26499  0.70083  Biso   1.000  I
  N30      1.0000 0.16590  0.02590  0.60780  Biso   1.000  N
  C86      1.0000 0.17210  0.93840  0.60310  Biso   1.000  C
  H57      1.0000 0.15530  0.90800  0.57910  Biso   1.000  H
  C87      1.0000 0.20100  0.89070  0.63060  Biso   1.000  C
  H58      1.0000 0.20310  0.82840  0.62710  Biso   1.000  H
  C88      1.0000 0.22700  0.93660  0.66380  Biso   1.000  C
  C89      1.0000 0.22160  0.02420  0.66890  Biso   1.000  C
  H59      1.0000 0.23880  0.05640  0.69170  Biso   1.000  H
  C90      1.0000 0.19080  0.06710  0.64060  Biso   1.000  C
  H60      1.0000 0.18730  0.12870  0.64500  Biso   1.000  H
  I21      1.0000 0.13739  0.08355  0.48812  Biso   1.000  I
  I22      1.0000 0.10866  0.23336  0.60353  Biso   1.000  I
  Zn11     1.0000 0.12180  0.09223  0.56417  Biso   1.000  Zn
  N31      1.0000 0.07480  0.01140  0.56220  Biso   1.000  N
  C91      1.0000 0.05930  0.00800  0.59690  Biso   1.000  C
  H61      1.0000 0.07060  0.04250  0.62250  Biso   1.000  H
  C92      1.0000 0.02750  0.95640  0.59770  Biso   1.000  C
  H62      1.0000 0.01660  0.95820  0.62280  Biso   1.000  H
  C93      1.0000 0.01180  0.90310  0.56240  Biso   1.000  C
  C94      1.0000 0.02800  0.90540  0.52580  Biso   1.000  C
  H63      1.0000 0.01790  0.86950  0.50040  Biso   1.000  H
  C95      1.0000 0.05810  0.95910  0.52700  Biso   1.000  C
  H64      1.0000 0.06850  0.96070  0.50150  Biso   1.000  H
  C96      1.0000 0.97960  0.84170  0.56250  Biso   1.000  C
  N32      1.0000 0.95970  0.85250  0.59400  Biso   1.000  N
  C97      1.0000 0.93090  0.79580  0.59250  Biso   1.000  C
  N33      1.0000 0.92290  0.72610  0.56490  Biso   1.000  N
  C98      1.0000 0.94510  0.72000  0.53590  Biso   1.000  C
  N34      1.0000 0.97230  0.77820  0.53200  Biso   1.000  N
  N35      1.0000 0.93570  0.49140  0.45150  Biso   1.000  N
  C99      1.0000 0.96530  0.54690  0.45650  Biso   1.000  C
  H65      1.0000 0.98460  0.53520  0.44080  Biso   1.000  H
  C100     1.0000 0.96920  0.62120  0.48360  Biso   1.000  C
  H66      1.0000 0.99080  0.65930  0.48670  Biso   1.000  H
  C101     1.0000 0.94010  0.63980  0.50710  Biso   1.000  C
  C102     1.0000 0.91070  0.58220  0.50240  Biso   1.000  C
  H67      1.0000 0.89090  0.59110  0.51760  Biso   1.000  H
  C103     1.0000 0.90970  0.50810  0.47430  Biso   1.000  C
  H68      1.0000 0.88890  0.46740  0.47160  Biso   1.000  H
  N36      1.0000 0.85860  0.83720  0.68250  Biso   1.000  N
  C104     1.0000 0.84780  0.78640  0.64650  Biso   1.000  C
  H69      1.0000 0.82300  0.75960  0.64050  Biso   1.000  H
  C105     1.0000 0.87060  0.77070  0.61750  Biso   1.000  C
  H70      1.0000 0.86180  0.73200  0.59290  Biso   1.000  H
  C106     1.0000 0.90640  0.81110  0.62390  Biso   1.000  C
  C107     1.0000 0.91800  0.86570  0.65980  Biso   1.000  C
  H71      1.0000 0.94230  0.89450  0.66580  Biso   1.000  H
  C108     1.0000 0.89310  0.87800  0.68760  Biso   1.000  C
  H72      1.0000 0.90090  0.91810  0.71190  Biso   1.000  H
  I23      1.0000 0.38550  0.23620  0.94310  Biso   1.000  I
  I24      1.0000 0.47370  0.14660  0.88370  Biso   1.000  I
  Zn12     1.0000 0.42020  0.12370  0.90710  Biso   1.000  Zn
  I25      1.0000 0.98926  0.62020  0.87707  Biso   1.000  I
  Zn13     1.0000 0.93111  0.60690  0.90568  Biso   1.000  Zn
  I26      1.0000 0.89773  0.73258  0.93531  Biso   1.000  I
  N37      1.0000 0.89030  0.54860  0.85340  Biso   1.000  N
  C109     1.0000 0.85640  0.58490  0.83200  Biso   1.000  C
  H73      1.0000 0.85010  0.64300  0.83980  Biso   1.000  H
  C110     1.0000 0.82980  0.53780  0.79750  Biso   1.000  C
  H74      1.0000 0.80550  0.56270  0.78310  Biso   1.000  H
  C111     1.0000 0.84050  0.45550  0.78620  Biso   1.000  C
  C112     1.0000 0.87630  0.41800  0.80800  Biso   1.000  C
  H75      1.0000 0.88400  0.36100  0.80030  Biso   1.000  H
  C113     1.0000 0.89980  0.46910  0.84170  Biso   1.000  C
  H76      1.0000 0.92410  0.44520  0.85700  Biso   1.000  H
  C114     1.0000 0.81280  0.39990  0.75240  Biso   1.000  C
  N38      1.0000 0.78290  0.44250  0.72610  Biso   1.000  N
  C115     1.0000 0.76010  0.39040  0.69510  Biso   1.000  C
  N39      1.0000 0.76460  0.30250  0.69100  Biso   1.000  N
  C116     1.0000 0.79490  0.26750  0.72020  Biso   1.000  C
  N40      1.0000 0.82040  0.31440  0.75020  Biso   1.000  N
  N41      1.0000 0.81380  0.98740  0.72640  Biso   1.000  N
  C117     1.0000 0.78200  0.02220  0.69930  Biso   1.000  C
  H77      1.0000 0.76340  0.98310  0.68200  Biso   1.000  H
  C118     1.0000 0.77550  0.10980  0.69570  Biso   1.000  C
  H78      1.0000 0.75300  0.13120  0.67520  Biso   1.000  H
  C119     1.0000 0.80170  0.17110  0.72180  Biso   1.000  C
  C120     1.0000 0.83360  0.13410  0.75030  Biso   1.000  C
  H79      1.0000 0.85210  0.17050  0.76970  Biso   1.000  H
  C121     1.0000 0.83810  0.04450  0.75020  Biso   1.000  C
  H80      1.0000 0.86100  0.02090  0.76910  Biso   1.000  H
  I27      1.0000 0.87408  0.82747  0.80508  Biso   1.000  I
  Zn14     1.0000 0.82674  0.85196  0.72962  Biso   1.000  Zn
  I28      1.0000 0.76430  0.76499  0.70083  Biso   1.000  I
  N42      1.0000 0.66590  0.52590  0.60780  Biso   1.000  N
  C122     1.0000 0.67210  0.43840  0.60310  Biso   1.000  C
  H81      1.0000 0.65530  0.40800  0.57910  Biso   1.000  H
  C123     1.0000 0.70100  0.39070  0.63060  Biso   1.000  C
  H82      1.0000 0.70310  0.32840  0.62710  Biso   1.000  H
  C124     1.0000 0.72700  0.43660  0.66380  Biso   1.000  C
  C125     1.0000 0.72160  0.52420  0.66890  Biso   1.000  C
  H83      1.0000 0.73880  0.55640  0.69170  Biso   1.000  H
  C126     1.0000 0.69080  0.56710  0.64060  Biso   1.000  C
  H84      1.0000 0.68730  0.62870  0.64500  Biso   1.000  H
  I29      1.0000 0.63739  0.58355  0.48812  Biso   1.000  I
  I30      1.0000 0.60866  0.73336  0.60353  Biso   1.000  I
  Zn15     1.0000 0.62180  0.59223  0.56417  Biso   1.000  Zn
  N43      1.0000 0.57480  0.51140  0.56220  Biso   1.000  N
  C127     1.0000 0.55930  0.50800  0.59690  Biso   1.000  C
  H85      1.0000 0.57060  0.54250  0.62250  Biso   1.000  H
  C128     1.0000 0.52750  0.45640  0.59770  Biso   1.000  C
  H86      1.0000 0.51660  0.45820  0.62280  Biso   1.000  H
  C129     1.0000 0.51180  0.40310  0.56240  Biso   1.000  C
  C130     1.0000 0.52800  0.40540  0.52580  Biso   1.000  C
  H87      1.0000 0.51790  0.36950  0.50040  Biso   1.000  H
  C131     1.0000 0.55810  0.45910  0.52700  Biso   1.000  C
  H88      1.0000 0.56850  0.46070  0.50150  Biso   1.000  H
  C132     1.0000 0.47960  0.34170  0.56250  Biso   1.000  C
  N44      1.0000 0.45970  0.35250  0.59400  Biso   1.000  N
  C133     1.0000 0.43090  0.29580  0.59250  Biso   1.000  C
  N45      1.0000 0.42290  0.22610  0.56490  Biso   1.000  N
  C134     1.0000 0.44510  0.22000  0.53590  Biso   1.000  C
  N46      1.0000 0.47230  0.27820  0.53200  Biso   1.000  N
  N47      1.0000 0.43570  0.99140  0.45150  Biso   1.000  N
  C135     1.0000 0.46530  0.04690  0.45650  Biso   1.000  C
  H89      1.0000 0.48460  0.03520  0.44080  Biso   1.000  H
  C136     1.0000 0.46920  0.12120  0.48360  Biso   1.000  C
  H90      1.0000 0.49080  0.15930  0.48670  Biso   1.000  H
  C137     1.0000 0.44010  0.13980  0.50710  Biso   1.000  C
  C138     1.0000 0.41070  0.08220  0.50240  Biso   1.000  C
  H91      1.0000 0.39090  0.09110  0.51760  Biso   1.000  H
  C139     1.0000 0.40970  0.00810  0.47430  Biso   1.000  C
  H92      1.0000 0.38890  0.96740  0.47160  Biso   1.000  H
  N48      1.0000 0.35860  0.33720  0.68250  Biso   1.000  N
  C140     1.0000 0.34780  0.28640  0.64650  Biso   1.000  C
  H93      1.0000 0.32300  0.25960  0.64050  Biso   1.000  H
  C141     1.0000 0.37060  0.27070  0.61750  Biso   1.000  C
  H94      1.0000 0.36180  0.23200  0.59290  Biso   1.000  H
  C142     1.0000 0.40640  0.31110  0.62390  Biso   1.000  C
  C143     1.0000 0.41800  0.36570  0.65980  Biso   1.000  C
  H95      1.0000 0.44230  0.39450  0.66580  Biso   1.000  H
  C144     1.0000 0.39310  0.37800  0.68760  Biso   1.000  C
  H96      1.0000 0.40090  0.41810  0.71190  Biso   1.000  H
  I31      1.0000 0.88550  0.73620  0.94310  Biso   1.000  I
  I32      1.0000 0.97370  0.64660  0.88370  Biso   1.000  I
  Zn16     1.0000 0.92020  0.62370  0.90710  Biso   1.000  Zn
  I33      1.0000 0.51074  0.87980  0.12293  Biso   1.000  I
  Zn17     1.0000 0.56889  0.89310  0.09432  Biso   1.000  Zn
  I34      1.0000 0.60227  0.76742  0.06469  Biso   1.000  I
  N49      1.0000 0.60970  0.95140  0.14660  Biso   1.000  N
  C145     1.0000 0.64360  0.91510  0.16800  Biso   1.000  C
  H97      1.0000 0.64990  0.85700  0.16020  Biso   1.000  H
  C146     1.0000 0.67020  0.96220  0.20250  Biso   1.000  C
  H98      1.0000 0.69450  0.93730  0.21690  Biso   1.000  H
  C147     1.0000 0.65950  0.04450  0.21380  Biso   1.000  C
  C148     1.0000 0.62370  0.08200  0.19200  Biso   1.000  C
  H99      1.0000 0.61600  0.13900  0.19970  Biso   1.000  H
  C149     1.0000 0.60020  0.03090  0.15830  Biso   1.000  C
  H100     1.0000 0.57590  0.05480  0.14300  Biso   1.000  H
  C150     1.0000 0.68720  0.10010  0.24760  Biso   1.000  C
  N50      1.0000 0.71710  0.05750  0.27390  Biso   1.000  N
  C151     1.0000 0.73990  0.10960  0.30490  Biso   1.000  C
  N51      1.0000 0.73540  0.19750  0.30900  Biso   1.000  N
  C152     1.0000 0.70510  0.23250  0.27980  Biso   1.000  C
  N52      1.0000 0.67960  0.18560  0.24980  Biso   1.000  N
  N53      1.0000 0.68620  0.51260  0.27360  Biso   1.000  N
  C153     1.0000 0.71800  0.47780  0.30070  Biso   1.000  C
  H101     1.0000 0.73660  0.51690  0.31800  Biso   1.000  H
  C154     1.0000 0.72450  0.39020  0.30430  Biso   1.000  C
  H102     1.0000 0.74700  0.36880  0.32480  Biso   1.000  H
  C155     1.0000 0.69830  0.32890  0.27820  Biso   1.000  C
  C156     1.0000 0.66640  0.36590  0.24970  Biso   1.000  C
  H103     1.0000 0.64790  0.32950  0.23030  Biso   1.000  H
  C157     1.0000 0.66190  0.45550  0.24980  Biso   1.000  C
  H104     1.0000 0.63900  0.47910  0.23090  Biso   1.000  H
  I35      1.0000 0.62592  0.67253  0.19492  Biso   1.000  I
  Zn18     1.0000 0.67326  0.64804  0.27038  Biso   1.000  Zn
  I36      1.0000 0.73570  0.73501  0.29917  Biso   1.000  I
  N54      1.0000 0.83410  0.97410  0.39220  Biso   1.000  N
  C158     1.0000 0.82790  0.06160  0.39690  Biso   1.000  C
  H105     1.0000 0.84470  0.09200  0.42090  Biso   1.000  H
  C159     1.0000 0.79900  0.10930  0.36940  Biso   1.000  C
  H106     1.0000 0.79690  0.17160  0.37290  Biso   1.000  H
  C160     1.0000 0.77300  0.06340  0.33620  Biso   1.000  C
  C161     1.0000 0.77840  0.97580  0.33110  Biso   1.000  C
  H107     1.0000 0.76120  0.94360  0.30830  Biso   1.000  H
  C162     1.0000 0.80920  0.93290  0.35940  Biso   1.000  C
  H108     1.0000 0.81270  0.87130  0.35500  Biso   1.000  H
  I37      1.0000 0.86261  0.91645  0.51188  Biso   1.000  I
  I38      1.0000 0.89134  0.76664  0.39647  Biso   1.000  I
  Zn19     1.0000 0.87820  0.90777  0.43583  Biso   1.000  Zn
  N55      1.0000 0.92520  0.98860  0.43780  Biso   1.000  N
  C163     1.0000 0.94070  0.99200  0.40310  Biso   1.000  C
  H109     1.0000 0.92940  0.95750  0.37750  Biso   1.000  H
  C164     1.0000 0.97250  0.04360  0.40230  Biso   1.000  C
  H110     1.0000 0.98340  0.04180  0.37720  Biso   1.000  H
  C165     1.0000 0.98820  0.09690  0.43760  Biso   1.000  C
  C166     1.0000 0.97200  0.09460  0.47420  Biso   1.000  C
  H111     1.0000 0.98210  0.13050  0.49960  Biso   1.000  H
  C167     1.0000 0.94190  0.04090  0.47300  Biso   1.000  C
  H112     1.0000 0.93150  0.03930  0.49850  Biso   1.000  H
  C168     1.0000 0.02040  0.15830  0.43750  Biso   1.000  C
  N56      1.0000 0.04030  0.14750  0.40600  Biso   1.000  N
  C169     1.0000 0.06910  0.20420  0.40750  Biso   1.000  C
  N57      1.0000 0.07710  0.27390  0.43510  Biso   1.000  N
  C170     1.0000 0.05490  0.28000  0.46410  Biso   1.000  C
  N58      1.0000 0.02770  0.22180  0.46800  Biso   1.000  N
  N59      1.0000 0.06430  0.50860  0.54850  Biso   1.000  N
  C171     1.0000 0.03470  0.45310  0.54350  Biso   1.000  C
  H113     1.0000 0.01540  0.46480  0.55920  Biso   1.000  H
  C172     1.0000 0.03080  0.37880  0.51640  Biso   1.000  C
  H114     1.0000 0.00920  0.34070  0.51330  Biso   1.000  H
  C173     1.0000 0.05990  0.36020  0.49290  Biso   1.000  C
  C174     1.0000 0.08930  0.41780  0.49760  Biso   1.000  C
  H115     1.0000 0.10910  0.40890  0.48240  Biso   1.000  H
  C175     1.0000 0.09030  0.49190  0.52570  Biso   1.000  C
  H116     1.0000 0.11110  0.53260  0.52840  Biso   1.000  H
  N60      1.0000 0.14140  0.16280  0.31750  Biso   1.000  N
  C176     1.0000 0.15220  0.21360  0.35350  Biso   1.000  C
  H117     1.0000 0.17700  0.24040  0.35950  Biso   1.000  H
  C177     1.0000 0.12940  0.22930  0.38250  Biso   1.000  C
  H118     1.0000 0.13820  0.26800  0.40710  Biso   1.000  H
  C178     1.0000 0.09360  0.18890  0.37610  Biso   1.000  C
  C179     1.0000 0.08200  0.13430  0.34020  Biso   1.000  C
  H119     1.0000 0.05770  0.10550  0.33420  Biso   1.000  H
  C180     1.0000 0.10690  0.12200  0.31240  Biso   1.000  C
  H120     1.0000 0.09910  0.08190  0.28810  Biso   1.000  H
  I39      1.0000 0.61450  0.76380  0.05690  Biso   1.000  I
  I40      1.0000 0.52630  0.85340  0.11630  Biso   1.000  I
  Zn20     1.0000 0.57980  0.87630  0.09290  Biso   1.000  Zn
  I41      1.0000 0.01074  0.37980  0.12293  Biso   1.000  I
  Zn21     1.0000 0.06889  0.39310  0.09432  Biso   1.000  Zn
  I42      1.0000 0.10227  0.26742  0.06469  Biso   1.000  I
  N61      1.0000 0.10970  0.45140  0.14660  Biso   1.000  N
  C181     1.0000 0.14360  0.41510  0.16800  Biso   1.000  C
  H121     1.0000 0.14990  0.35700  0.16020  Biso   1.000  H
  C182     1.0000 0.17020  0.46220  0.20250  Biso   1.000  C
  H122     1.0000 0.19450  0.43730  0.21690  Biso   1.000  H
  C183     1.0000 0.15950  0.54450  0.21380  Biso   1.000  C
  C184     1.0000 0.12370  0.58200  0.19200  Biso   1.000  C
  H123     1.0000 0.11600  0.63900  0.19970  Biso   1.000  H
  C185     1.0000 0.10020  0.53090  0.15830  Biso   1.000  C
  H124     1.0000 0.07590  0.55480  0.14300  Biso   1.000  H
  C186     1.0000 0.18720  0.60010  0.24760  Biso   1.000  C
  N62      1.0000 0.21710  0.55750  0.27390  Biso   1.000  N
  C187     1.0000 0.23990  0.60960  0.30490  Biso   1.000  C
  N63      1.0000 0.23540  0.69750  0.30900  Biso   1.000  N
  C188     1.0000 0.20510  0.73250  0.27980  Biso   1.000  C
  N64      1.0000 0.17960  0.68560  0.24980  Biso   1.000  N
  N65      1.0000 0.18620  0.01260  0.27360  Biso   1.000  N
  C189     1.0000 0.21800  0.97780  0.30070  Biso   1.000  C
  H125     1.0000 0.23660  0.01690  0.31800  Biso   1.000  H
  C190     1.0000 0.22450  0.89020  0.30430  Biso   1.000  C
  H126     1.0000 0.24700  0.86880  0.32480  Biso   1.000  H
  C191     1.0000 0.19830  0.82890  0.27820  Biso   1.000  C
  C192     1.0000 0.16640  0.86590  0.24970  Biso   1.000  C
  H127     1.0000 0.14790  0.82950  0.23030  Biso   1.000  H
  C193     1.0000 0.16190  0.95550  0.24980  Biso   1.000  C
  H128     1.0000 0.13900  0.97910  0.23090  Biso   1.000  H
  I43      1.0000 0.12592  0.17253  0.19492  Biso   1.000  I
  Zn22     1.0000 0.17326  0.14804  0.27038  Biso   1.000  Zn
  I44      1.0000 0.23570  0.23501  0.29917  Biso   1.000  I
  N66      1.0000 0.33410  0.47410  0.39220  Biso   1.000  N
  C194     1.0000 0.32790  0.56160  0.39690  Biso   1.000  C
  H129     1.0000 0.34470  0.59200  0.42090  Biso   1.000  H
  C195     1.0000 0.29900  0.60930  0.36940  Biso   1.000  C
  H130     1.0000 0.29690  0.67160  0.37290  Biso   1.000  H
  C196     1.0000 0.27300  0.56340  0.33620  Biso   1.000  C
  C197     1.0000 0.27840  0.47580  0.33110  Biso   1.000  C
  H131     1.0000 0.26120  0.44360  0.30830  Biso   1.000  H
  C198     1.0000 0.30920  0.43290  0.35940  Biso   1.000  C
  H132     1.0000 0.31270  0.37130  0.35500  Biso   1.000  H
  I45      1.0000 0.36261  0.41645  0.51188  Biso   1.000  I
  I46      1.0000 0.39134  0.26664  0.39647  Biso   1.000  I
  Zn23     1.0000 0.37820  0.40777  0.43583  Biso   1.000  Zn
  N67      1.0000 0.42520  0.48860  0.43780  Biso   1.000  N
  C199     1.0000 0.44070  0.49200  0.40310  Biso   1.000  C
  H133     1.0000 0.42940  0.45750  0.37750  Biso   1.000  H
  C200     1.0000 0.47250  0.54360  0.40230  Biso   1.000  C
  H134     1.0000 0.48340  0.54180  0.37720  Biso   1.000  H
  C201     1.0000 0.48820  0.59690  0.43760  Biso   1.000  C
  C202     1.0000 0.47200  0.59460  0.47420  Biso   1.000  C
  H135     1.0000 0.48210  0.63050  0.49960  Biso   1.000  H
  C203     1.0000 0.44190  0.54090  0.47300  Biso   1.000  C
  H136     1.0000 0.43150  0.53930  0.49850  Biso   1.000  H
  C204     1.0000 0.52040  0.65830  0.43750  Biso   1.000  C
  N68      1.0000 0.54030  0.64750  0.40600  Biso   1.000  N
  C205     1.0000 0.56910  0.70420  0.40750  Biso   1.000  C
  N69      1.0000 0.57710  0.77390  0.43510  Biso   1.000  N
  C206     1.0000 0.55490  0.78000  0.46410  Biso   1.000  C
  N70      1.0000 0.52770  0.72180  0.46800  Biso   1.000  N
  N71      1.0000 0.56430  0.00860  0.54850  Biso   1.000  N
  C207     1.0000 0.53470  0.95310  0.54350  Biso   1.000  C
  H137     1.0000 0.51540  0.96480  0.55920  Biso   1.000  H
  C208     1.0000 0.53080  0.87880  0.51640  Biso   1.000  C
  H138     1.0000 0.50920  0.84070  0.51330  Biso   1.000  H
  C209     1.0000 0.55990  0.86020  0.49290  Biso   1.000  C
  C210     1.0000 0.58930  0.91780  0.49760  Biso   1.000  C
  H139     1.0000 0.60910  0.90890  0.48240  Biso   1.000  H
  C211     1.0000 0.59030  0.99190  0.52570  Biso   1.000  C
  H140     1.0000 0.61110  0.03260  0.52840  Biso   1.000  H
  N72      1.0000 0.64140  0.66280  0.31750  Biso   1.000  N
  C212     1.0000 0.65220  0.71360  0.35350  Biso   1.000  C
  H141     1.0000 0.67700  0.74040  0.35950  Biso   1.000  H
  C213     1.0000 0.62940  0.72930  0.38250  Biso   1.000  C
  H142     1.0000 0.63820  0.76800  0.40710  Biso   1.000  H
  C214     1.0000 0.59360  0.68890  0.37610  Biso   1.000  C
  C215     1.0000 0.58200  0.63430  0.34020  Biso   1.000  C
  H143     1.0000 0.55770  0.60550  0.33420  Biso   1.000  H
  C216     1.0000 0.60690  0.62200  0.31240  Biso   1.000  C
  H144     1.0000 0.59910  0.58190  0.28810  Biso   1.000  H
  I47      1.0000 0.11450  0.26380  0.05690  Biso   1.000  I
  I48      1.0000 0.02630  0.35340  0.11630  Biso   1.000  I
  Zn24     1.0000 0.07980  0.37630  0.09290  Biso   1.000  Zn
  I49      1.0000 0.51074  0.12020  0.62293  Biso   1.000  I
  Zn25     1.0000 0.56889  0.10690  0.59432  Biso   1.000  Zn
  I50      1.0000 0.60227  0.23258  0.56469  Biso   1.000  I
  N73      1.0000 0.60970  0.04860  0.64660  Biso   1.000  N
  C217     1.0000 0.64360  0.08490  0.66800  Biso   1.000  C
  H145     1.0000 0.64990  0.14300  0.66020  Biso   1.000  H
  C218     1.0000 0.67020  0.03780  0.70250  Biso   1.000  C
  H146     1.0000 0.69450  0.06270  0.71690  Biso   1.000  H
  C219     1.0000 0.65950  0.95550  0.71380  Biso   1.000  C
  C220     1.0000 0.62370  0.91800  0.69200  Biso   1.000  C
  H147     1.0000 0.61600  0.86100  0.69970  Biso   1.000  H
  C221     1.0000 0.60020  0.96910  0.65830  Biso   1.000  C
  H148     1.0000 0.57590  0.94520  0.64300  Biso   1.000  H
  C222     1.0000 0.68720  0.89990  0.74760  Biso   1.000  C
  N74      1.0000 0.71710  0.94250  0.77390  Biso   1.000  N
  C223     1.0000 0.73990  0.89040  0.80490  Biso   1.000  C
  N75      1.0000 0.73540  0.80250  0.80900  Biso   1.000  N
  C224     1.0000 0.70510  0.76750  0.77980  Biso   1.000  C
  N76      1.0000 0.67960  0.81440  0.74980  Biso   1.000  N
  N77      1.0000 0.68620  0.48740  0.77360  Biso   1.000  N
  C225     1.0000 0.71800  0.52220  0.80070  Biso   1.000  C
  H149     1.0000 0.73660  0.48310  0.81800  Biso   1.000  H
  C226     1.0000 0.72450  0.60980  0.80430  Biso   1.000  C
  H150     1.0000 0.74700  0.63120  0.82480  Biso   1.000  H
  C227     1.0000 0.69830  0.67110  0.77820  Biso   1.000  C
  C228     1.0000 0.66640  0.63410  0.74970  Biso   1.000  C
  H151     1.0000 0.64790  0.67050  0.73030  Biso   1.000  H
  C229     1.0000 0.66190  0.54450  0.74980  Biso   1.000  C
  H152     1.0000 0.63900  0.52090  0.73090  Biso   1.000  H
  I51      1.0000 0.62592  0.32747  0.69492  Biso   1.000  I
  Zn26     1.0000 0.67326  0.35196  0.77038  Biso   1.000  Zn
  I52      1.0000 0.73570  0.26499  0.79917  Biso   1.000  I
  N78      1.0000 0.83410  0.02590  0.89220  Biso   1.000  N
  C230     1.0000 0.82790  0.93840  0.89690  Biso   1.000  C
  H153     1.0000 0.84470  0.90800  0.92090  Biso   1.000  H
  C231     1.0000 0.79900  0.89070  0.86940  Biso   1.000  C
  H154     1.0000 0.79690  0.82840  0.87290  Biso   1.000  H
  C232     1.0000 0.77300  0.93660  0.83620  Biso   1.000  C
  C233     1.0000 0.77840  0.02420  0.83110  Biso   1.000  C
  H155     1.0000 0.76120  0.05640  0.80830  Biso   1.000  H
  C234     1.0000 0.80920  0.06710  0.85940  Biso   1.000  C
  H156     1.0000 0.81270  0.12870  0.85500  Biso   1.000  H
  I53      1.0000 0.86261  0.08355  0.01188  Biso   1.000  I
  I54      1.0000 0.89134  0.23336  0.89647  Biso   1.000  I
  Zn27     1.0000 0.87820  0.09223  0.93583  Biso   1.000  Zn
  N79      1.0000 0.92520  0.01140  0.93780  Biso   1.000  N
  C235     1.0000 0.94070  0.00800  0.90310  Biso   1.000  C
  H157     1.0000 0.92940  0.04250  0.87750  Biso   1.000  H
  C236     1.0000 0.97250  0.95640  0.90230  Biso   1.000  C
  H158     1.0000 0.98340  0.95820  0.87720  Biso   1.000  H
  C237     1.0000 0.98820  0.90310  0.93760  Biso   1.000  C
  C238     1.0000 0.97200  0.90540  0.97420  Biso   1.000  C
  H159     1.0000 0.98210  0.86950  0.99960  Biso   1.000  H
  C239     1.0000 0.94190  0.95910  0.97300  Biso   1.000  C
  H160     1.0000 0.93150  0.96070  0.99850  Biso   1.000  H
  C240     1.0000 0.02040  0.84170  0.93750  Biso   1.000  C
  N80      1.0000 0.04030  0.85250  0.90600  Biso   1.000  N
  C241     1.0000 0.06910  0.79580  0.90750  Biso   1.000  C
  N81      1.0000 0.07710  0.72610  0.93510  Biso   1.000  N
  C242     1.0000 0.05490  0.72000  0.96410  Biso   1.000  C
  N82      1.0000 0.02770  0.77820  0.96800  Biso   1.000  N
  N83      1.0000 0.06430  0.49140  0.04850  Biso   1.000  N
  C243     1.0000 0.03470  0.54690  0.04350  Biso   1.000  C
  H161     1.0000 0.01540  0.53520  0.05920  Biso   1.000  H
  C244     1.0000 0.03080  0.62120  0.01640  Biso   1.000  C
  H162     1.0000 0.00920  0.65930  0.01330  Biso   1.000  H
  C245     1.0000 0.05990  0.63980  0.99290  Biso   1.000  C
  C246     1.0000 0.08930  0.58220  0.99760  Biso   1.000  C
  H163     1.0000 0.10910  0.59110  0.98240  Biso   1.000  H
  C247     1.0000 0.09030  0.50810  0.02570  Biso   1.000  C
  H164     1.0000 0.11110  0.46740  0.02840  Biso   1.000  H
  N84      1.0000 0.14140  0.83720  0.81750  Biso   1.000  N
  C248     1.0000 0.15220  0.78640  0.85350  Biso   1.000  C
  H165     1.0000 0.17700  0.75960  0.85950  Biso   1.000  H
  C249     1.0000 0.12940  0.77070  0.88250  Biso   1.000  C
  H166     1.0000 0.13820  0.73200  0.90710  Biso   1.000  H
  C250     1.0000 0.09360  0.81110  0.87610  Biso   1.000  C
  C251     1.0000 0.08200  0.86570  0.84020  Biso   1.000  C
  H167     1.0000 0.05770  0.89450  0.83420  Biso   1.000  H
  C252     1.0000 0.10690  0.87800  0.81240  Biso   1.000  C
  H168     1.0000 0.09910  0.91810  0.78810  Biso   1.000  H
  I55      1.0000 0.61450  0.23620  0.55690  Biso   1.000  I
  I56      1.0000 0.52630  0.14660  0.61630  Biso   1.000  I
  Zn28     1.0000 0.57980  0.12370  0.59290  Biso   1.000  Zn
  I57      1.0000 0.01074  0.62020  0.62293  Biso   1.000  I
  Zn29     1.0000 0.06889  0.60690  0.59432  Biso   1.000  Zn
  I58      1.0000 0.10227  0.73258  0.56469  Biso   1.000  I
  N85      1.0000 0.10970  0.54860  0.64660  Biso   1.000  N
  C253     1.0000 0.14360  0.58490  0.66800  Biso   1.000  C
  H169     1.0000 0.14990  0.64300  0.66020  Biso   1.000  H
  C254     1.0000 0.17020  0.53780  0.70250  Biso   1.000  C
  H170     1.0000 0.19450  0.56270  0.71690  Biso   1.000  H
  C255     1.0000 0.15950  0.45550  0.71380  Biso   1.000  C
  C256     1.0000 0.12370  0.41800  0.69200  Biso   1.000  C
  H171     1.0000 0.11600  0.36100  0.69970  Biso   1.000  H
  C257     1.0000 0.10020  0.46910  0.65830  Biso   1.000  C
  H172     1.0000 0.07590  0.44520  0.64300  Biso   1.000  H
  C258     1.0000 0.18720  0.39990  0.74760  Biso   1.000  C
  N86      1.0000 0.21710  0.44250  0.77390  Biso   1.000  N
  C259     1.0000 0.23990  0.39040  0.80490  Biso   1.000  C
  N87      1.0000 0.23540  0.30250  0.80900  Biso   1.000  N
  C260     1.0000 0.20510  0.26750  0.77980  Biso   1.000  C
  N88      1.0000 0.17960  0.31440  0.74980  Biso   1.000  N
  N89      1.0000 0.18620  0.98740  0.77360  Biso   1.000  N
  C261     1.0000 0.21800  0.02220  0.80070  Biso   1.000  C
  H173     1.0000 0.23660  0.98310  0.81800  Biso   1.000  H
  C262     1.0000 0.22450  0.10980  0.80430  Biso   1.000  C
  H174     1.0000 0.24700  0.13120  0.82480  Biso   1.000  H
  C263     1.0000 0.19830  0.17110  0.77820  Biso   1.000  C
  C264     1.0000 0.16640  0.13410  0.74970  Biso   1.000  C
  H175     1.0000 0.14790  0.17050  0.73030  Biso   1.000  H
  C265     1.0000 0.16190  0.04450  0.74980  Biso   1.000  C
  H176     1.0000 0.13900  0.02090  0.73090  Biso   1.000  H
  I59      1.0000 0.12592  0.82747  0.69492  Biso   1.000  I
  Zn30     1.0000 0.17326  0.85196  0.77038  Biso   1.000  Zn
  I60      1.0000 0.23570  0.76499  0.79917  Biso   1.000  I
  N90      1.0000 0.33410  0.52590  0.89220  Biso   1.000  N
  C266     1.0000 0.32790  0.43840  0.89690  Biso   1.000  C
  H177     1.0000 0.34470  0.40800  0.92090  Biso   1.000  H
  C267     1.0000 0.29900  0.39070  0.86940  Biso   1.000  C
  H178     1.0000 0.29690  0.32840  0.87290  Biso   1.000  H
  C268     1.0000 0.27300  0.43660  0.83620  Biso   1.000  C
  C269     1.0000 0.27840  0.52420  0.83110  Biso   1.000  C
  H179     1.0000 0.26120  0.55640  0.80830  Biso   1.000  H
  C270     1.0000 0.30920  0.56710  0.85940  Biso   1.000  C
  H180     1.0000 0.31270  0.62870  0.85500  Biso   1.000  H
  I61      1.0000 0.36261  0.58355  0.01188  Biso   1.000  I
  I62      1.0000 0.39134  0.73336  0.89647  Biso   1.000  I
  Zn31     1.0000 0.37820  0.59223  0.93583  Biso   1.000  Zn
  N91      1.0000 0.42520  0.51140  0.93780  Biso   1.000  N
  C271     1.0000 0.44070  0.50800  0.90310  Biso   1.000  C
  H181     1.0000 0.42940  0.54250  0.87750  Biso   1.000  H
  C272     1.0000 0.47250  0.45640  0.90230  Biso   1.000  C
  H182     1.0000 0.48340  0.45820  0.87720  Biso   1.000  H
  C273     1.0000 0.48820  0.40310  0.93760  Biso   1.000  C
  C274     1.0000 0.47200  0.40540  0.97420  Biso   1.000  C
  H183     1.0000 0.48210  0.36950  0.99960  Biso   1.000  H
  C275     1.0000 0.44190  0.45910  0.97300  Biso   1.000  C
  H184     1.0000 0.43150  0.46070  0.99850  Biso   1.000  H
  C276     1.0000 0.52040  0.34170  0.93750  Biso   1.000  C
  N92      1.0000 0.54030  0.35250  0.90600  Biso   1.000  N
  C277     1.0000 0.56910  0.29580  0.90750  Biso   1.000  C
  N93      1.0000 0.57710  0.22610  0.93510  Biso   1.000  N
  C278     1.0000 0.55490  0.22000  0.96410  Biso   1.000  C
  N94      1.0000 0.52770  0.27820  0.96800  Biso   1.000  N
  N95      1.0000 0.56430  0.99140  0.04850  Biso   1.000  N
  C279     1.0000 0.53470  0.04690  0.04350  Biso   1.000  C
  H185     1.0000 0.51540  0.03520  0.05920  Biso   1.000  H
  C280     1.0000 0.53080  0.12120  0.01640  Biso   1.000  C
  H186     1.0000 0.50920  0.15930  0.01330  Biso   1.000  H
  C281     1.0000 0.55990  0.13980  0.99290  Biso   1.000  C
  C282     1.0000 0.58930  0.08220  0.99760  Biso   1.000  C
  H187     1.0000 0.60910  0.09110  0.98240  Biso   1.000  H
  C283     1.0000 0.59030  0.00810  0.02570  Biso   1.000  C
  H188     1.0000 0.61110  0.96740  0.02840  Biso   1.000  H
  N96      1.0000 0.64140  0.33720  0.81750  Biso   1.000  N
  C284     1.0000 0.65220  0.28640  0.85350  Biso   1.000  C
  H189     1.0000 0.67700  0.25960  0.85950  Biso   1.000  H
  C285     1.0000 0.62940  0.27070  0.88250  Biso   1.000  C
  H190     1.0000 0.63820  0.23200  0.90710  Biso   1.000  H
  C286     1.0000 0.59360  0.31110  0.87610  Biso   1.000  C
  C287     1.0000 0.58200  0.36570  0.84020  Biso   1.000  C
  H191     1.0000 0.55770  0.39450  0.83420  Biso   1.000  H
  C288     1.0000 0.60690  0.37800  0.81240  Biso   1.000  C
  H192     1.0000 0.59910  0.41810  0.78810  Biso   1.000  H
  I63      1.0000 0.11450  0.73620  0.55690  Biso   1.000  I
  I64      1.0000 0.02630  0.64660  0.61630  Biso   1.000  I
  Zn32     1.0000 0.07980  0.62370  0.59290  Biso   1.000  Zn
