data_image0
_cell_length_a       36.3783
_cell_length_b       14.6755
_cell_length_c       31.2278
_cell_angle_alpha    90
_cell_angle_beta     103.184
_cell_angle_gamma    90

_symmetry_space_group_name_H-M    "P 1"
_symmetry_int_tables_number       1

loop_
  _symmetry_equiv_pos_as_xyz
  'x, y, z'

loop_
  _atom_site_label
  _atom_site_occupancy
  _atom_site_fract_x
  _atom_site_fract_y
  _atom_site_fract_z
  _atom_site_thermal_displace_type
  _atom_site_B_iso_or_equiv
  _atom_site_type_symbol
  Zn1      1.0000 0.07217  0.38512  0.85481  Biso   1.000  Zn
  Zn2      1.0000 0.38130  0.39852  0.17470  Biso   1.000  Zn
  Zn3      1.0000 0.57414  0.12331  0.35084  Biso   1.000  Zn
  Zn4      1.0000 0.67276  0.65024  0.03020  Biso   1.000  Zn
  Zn5      1.0000 0.67667  0.35093  0.53488  Biso   1.000  Zn
  Zn6      1.0000 0.38091  0.60332  0.67270  Biso   1.000  Zn
  I1       1.0000 0.01331  0.36555  0.88424  Biso   1.000  I
  I2       1.0000 0.10494  0.26354  0.82067  Biso   1.000  I
  I3       1.0000 0.35803  0.39461  0.24522  Biso   1.000  I
  I4       1.0000 0.39749  0.25692  0.13697  Biso   1.000  I
  I5       1.0000 0.36295  0.61105  0.74596  Biso   1.000  I
  I6       1.0000 0.39912  0.73991  0.63175  Biso   1.000  I
  N1       1.0000 0.11200  0.44690  0.90410  Biso   1.000  N
  C1       1.0000 0.14400  0.40820  0.92520  Biso   1.000  C
  H1       1.0000 0.14900  0.34730  0.91800  Biso   1.000  H
  C2       1.0000 0.16990  0.45220  0.95680  Biso   1.000  C
  H2       1.0000 0.19210  0.42150  0.97170  Biso   1.000  H
  C3       1.0000 0.16360  0.54200  0.96730  Biso   1.000  C
  C4       1.0000 0.12910  0.58100  0.94760  Biso   1.000  C
  H3       1.0000 0.12220  0.63930  0.95640  Biso   1.000  H
  C5       1.0000 0.10520  0.53260  0.91490  Biso   1.000  C
  H4       1.0000 0.08280  0.56150  0.89930  Biso   1.000  H
  N2       1.0000 0.34060  0.46870  0.12950  Biso   1.000  N
  C6       1.0000 0.33430  0.55450  0.13680  Biso   1.000  C
  H5       1.0000 0.35090  0.58450  0.16040  Biso   1.000  H
  C7       1.0000 0.30460  0.60320  0.11190  Biso   1.000  C
  H6       1.0000 0.30110  0.66560  0.11810  Biso   1.000  H
  C8       1.0000 0.28010  0.55950  0.07770  Biso   1.000  C
  C9       1.0000 0.28760  0.46970  0.06910  Biso   1.000  C
  H7       1.0000 0.27210  0.43840  0.04490  Biso   1.000  H
  C10      1.0000 0.31760  0.42650  0.09590  Biso   1.000  C
  H8       1.0000 0.32230  0.36430  0.09040  Biso   1.000  H
  N3       1.0000 0.18670  0.01230  0.03790  Biso   1.000  N
  C11      1.0000 0.22110  0.98020  0.05650  Biso   1.000  C
  H9       1.0000 0.24020  0.02180  0.07020  Biso   1.000  H
  C12      1.0000 0.22980  0.88870  0.05640  Biso   1.000  C
  H10      1.0000 0.25470  0.86790  0.06910  Biso   1.000  H
  C13      1.0000 0.20190  0.82780  0.03760  Biso   1.000  C
  C14      1.0000 0.16630  0.86060  0.01810  Biso   1.000  C
  H11      1.0000 0.14700  0.82050  0.00340  Biso   1.000  H
  C15      1.0000 0.15950  0.95210  0.02040  Biso   1.000  C
  H12      1.0000 0.13460  0.97390  0.00920  Biso   1.000  H
  C16      1.0000 0.19190  0.59540  0.99980  Biso   1.000  C
  N4       1.0000 0.22330  0.55410  0.02120  Biso   1.000  N
  C17      1.0000 0.24640  0.60590  0.05120  Biso   1.000  C
  N5       1.0000 0.24060  0.69330  0.05830  Biso   1.000  N
  C18      1.0000 0.20940  0.72900  0.03380  Biso   1.000  C
  N6       1.0000 0.18340  0.68340  0.00520  Biso   1.000  N
  N7       1.0000 0.42580  0.48920  0.18170  Biso   1.000  N
  C19      1.0000 0.44110  0.52990  0.21900  Biso   1.000  C
  H13      1.0000 0.43110  0.51900  0.24410  Biso   1.000  H
  C20      1.0000 0.47130  0.58770  0.22270  Biso   1.000  C
  H14      1.0000 0.48190  0.61640  0.25000  Biso   1.000  H
  C21      1.0000 0.48600  0.60390  0.18740  Biso   1.000  C
  C22      1.0000 0.46950  0.56500  0.14680  Biso   1.000  C
  H15      1.0000 0.47880  0.57610  0.12120  Biso   1.000  H
  C23      1.0000 0.43910  0.50980  0.14640  Biso   1.000  C
  H16      1.0000 0.42640  0.48430  0.11910  Biso   1.000  H
  N8       1.0000 0.56480  0.01660  0.30590  Biso   1.000  N
  C24      1.0000 0.53410  0.96470  0.29850  Biso   1.000  C
  H17      1.0000 0.51440  0.97990  0.31270  Biso   1.000  H
  C25      1.0000 0.52950  0.88970  0.27120  Biso   1.000  C
  H18      1.0000 0.50730  0.85340  0.26720  Biso   1.000  H
  C26      1.0000 0.55730  0.86860  0.25000  Biso   1.000  C
  C27      1.0000 0.59040  0.92070  0.25790  Biso   1.000  C
  H19      1.0000 0.61070  0.90640  0.24460  Biso   1.000  H
  C28      1.0000 0.59190  0.99380  0.28600  Biso   1.000  C
  H20      1.0000 0.61400  0.03050  0.29140  Biso   1.000  H
  N9       1.0000 0.64030  0.67010  0.07590  Biso   1.000  N
  C29      1.0000 0.65370  0.70970  0.11370  Biso   1.000  C
  H21      1.0000 0.67940  0.72820  0.12100  Biso   1.000  H
  C30      1.0000 0.63120  0.72530  0.14360  Biso   1.000  C
  H22      1.0000 0.64170  0.75390  0.17090  Biso   1.000  H
  C31      1.0000 0.59430  0.69980  0.13360  Biso   1.000  C
  C32      1.0000 0.58000  0.66060  0.09310  Biso   1.000  C
  H23      1.0000 0.55440  0.64220  0.08450  Biso   1.000  H
  C33      1.0000 0.60410  0.64890  0.06540  Biso   1.000  C
  H24      1.0000 0.59400  0.62400  0.03710  Biso   1.000  H
  C34      1.0000 0.51950  0.66650  0.19000  Biso   1.000  C
  N10      1.0000 0.52470  0.73100  0.22070  Biso   1.000  N
  C35      1.0000 0.55270  0.78870  0.21940  Biso   1.000  C
  N11      1.0000 0.57580  0.78330  0.19260  Biso   1.000  N
  C36      1.0000 0.56970  0.71290  0.16420  Biso   1.000  C
  N12      1.0000 0.54050  0.65460  0.16040  Biso   1.000  N
  N13      1.0000 0.61490  0.05800  0.39820  Biso   1.000  N
  C37      1.0000 0.60330  0.98120  0.41520  Biso   1.000  C
  H25      1.0000 0.57750  0.96340  0.40790  Biso   1.000  H
  C38      1.0000 0.63000  0.92940  0.44360  Biso   1.000  C
  H26      1.0000 0.62350  0.86960  0.45110  Biso   1.000  H
  C39      1.0000 0.66500  0.96130  0.46110  Biso   1.000  C
  C40      1.0000 0.67540  0.04320  0.44580  Biso   1.000  C
  H27      1.0000 0.70000  0.06720  0.45690  Biso   1.000  H
  C41      1.0000 0.64920  0.09010  0.41380  Biso   1.000  C
  H28      1.0000 0.65620  0.14660  0.40310  Biso   1.000  H
  N14      1.0000 0.68680  0.49030  0.53590  Biso   1.000  N
  C42      1.0000 0.66270  0.54690  0.50950  Biso   1.000  C
  H29      1.0000 0.64040  0.52190  0.49150  Biso   1.000  H
  C43      1.0000 0.66870  0.63810  0.50740  Biso   1.000  C
  H30      1.0000 0.65060  0.67550  0.48850  Biso   1.000  H
  C44      1.0000 0.70110  0.67590  0.53280  Biso   1.000  C
  C45      1.0000 0.72660  0.61890  0.56020  Biso   1.000  C
  H31      1.0000 0.74930  0.64260  0.57810  Biso   1.000  H
  C46      1.0000 0.71830  0.52770  0.56090  Biso   1.000  C
  H32      1.0000 0.73570  0.48900  0.58000  Biso   1.000  H
  N15      1.0000 0.83860  0.03580  0.63010  Biso   1.000  N
  C47      1.0000 0.81480  0.07970  0.59620  Biso   1.000  C
  H33      1.0000 0.81900  0.14230  0.59130  Biso   1.000  H
  C48      1.0000 0.78510  0.03680  0.56930  Biso   1.000  C
  H34      1.0000 0.76880  0.06990  0.54650  Biso   1.000  H
  C49      1.0000 0.77850  0.94410  0.57510  Biso   1.000  C
  C50      1.0000 0.80310  0.89870  0.60860  Biso   1.000  C
  H35      1.0000 0.80010  0.83530  0.61310  Biso   1.000  H
  C51      1.0000 0.83240  0.94710  0.63560  Biso   1.000  C
  H36      1.0000 0.84870  0.91570  0.65910  Biso   1.000  H
  C52      1.0000 0.69180  0.90800  0.49470  Biso   1.000  C
  N16      1.0000 0.68290  0.82220  0.50040  Biso   1.000  N
  C53      1.0000 0.70880  0.77420  0.52910  Biso   1.000  C
  N17      1.0000 0.74020  0.80980  0.55420  Biso   1.000  N
  C54      1.0000 0.74620  0.89980  0.54700  Biso   1.000  C
  N18      1.0000 0.72310  0.94990  0.51630  Biso   1.000  N
  N19      1.0000 0.64400  0.33020  0.58010  Biso   1.000  N
  C55      1.0000 0.65320  0.27680  0.61570  Biso   1.000  C
  H37      1.0000 0.67740  0.24920  0.62190  Biso   1.000  H
  C56      1.0000 0.63030  0.25930  0.64360  Biso   1.000  C
  H38      1.0000 0.63810  0.21920  0.66790  Biso   1.000  H
  C57      1.0000 0.59490  0.30180  0.63560  Biso   1.000  C
  C58      1.0000 0.58520  0.35920  0.59850  Biso   1.000  C
  H39      1.0000 0.56180  0.39080  0.59230  Biso   1.000  H
  C59      1.0000 0.60980  0.36900  0.57150  Biso   1.000  C
  H40      1.0000 0.60230  0.40480  0.54560  Biso   1.000  H
  N20      1.0000 0.42550  0.51510  0.67900  Biso   1.000  N
  C60      1.0000 0.44150  0.47680  0.71760  Biso   1.000  C
  H41      1.0000 0.43160  0.48980  0.74260  Biso   1.000  H
  C61      1.0000 0.47230  0.41860  0.72220  Biso   1.000  C
  H42      1.0000 0.48290  0.39120  0.74980  Biso   1.000  H
  C62      1.0000 0.48760  0.40060  0.68610  Biso   1.000  C
  C63      1.0000 0.46950  0.43600  0.64670  Biso   1.000  C
  H43      1.0000 0.47810  0.42020  0.62110  Biso   1.000  H
  C64      1.0000 0.43910  0.49450  0.64280  Biso   1.000  C
  H44      1.0000 0.42770  0.52040  0.61510  Biso   1.000  H
  N21      1.0000 0.56330  0.99280  0.80950  Biso   1.000  N
  C65      1.0000 0.58990  0.00970  0.78780  Biso   1.000  C
  H45      1.0000 0.61140  0.97110  0.79240  Biso   1.000  H
  C66      1.0000 0.58730  0.08180  0.75840  Biso   1.000  C
  H46      1.0000 0.60660  0.09200  0.74300  Biso   1.000  H
  C67      1.0000 0.55610  0.13870  0.75200  Biso   1.000  C
  C68      1.0000 0.52830  0.11960  0.77460  Biso   1.000  C
  H47      1.0000 0.50620  0.15620  0.77030  Biso   1.000  H
  C69      1.0000 0.53310  0.04620  0.80340  Biso   1.000  C
  H48      1.0000 0.51420  0.03390  0.81920  Biso   1.000  H
  C70      1.0000 0.56910  0.28860  0.66470  Biso   1.000  C
  N22      1.0000 0.54080  0.34830  0.66080  Biso   1.000  N
  C71      1.0000 0.51940  0.33740  0.68960  Biso   1.000  C
  N23      1.0000 0.52440  0.27530  0.72160  Biso   1.000  N
  C72      1.0000 0.55240  0.21600  0.72070  Biso   1.000  C
  N24      1.0000 0.57600  0.21960  0.69340  Biso   1.000  N
  I7       1.0000 0.51459  0.13790  0.38278  Biso   1.000  I
  I8       1.0000 0.60222  0.24813  0.31525  Biso   1.000  I
  I9       1.0000 0.73090  0.74410  0.04990  Biso   1.000  I
  I10      1.0000 0.62499  0.65997  0.95546  Biso   1.000  I
  I11      1.0000 0.74210  0.27700  0.56101  Biso   1.000  I
  I12      1.0000 0.63035  0.31720  0.46136  Biso   1.000  I
  I13      1.0000 0.52790  0.14620  0.38350  Biso   1.000  I
  I14      1.0000 0.61200  0.24850  0.30560  Biso   1.000  I
  I15      1.0000 0.74230  0.74180  0.05790  Biso   1.000  I
  I16      1.0000 0.63330  0.66700  0.95740  Biso   1.000  I
  I17      1.0000 0.73740  0.26910  0.56100  Biso   1.000  I
  I18      1.0000 0.63340  0.31960  0.45980  Biso   1.000  I
  Zn7      1.0000 0.57217  0.88512  0.85481  Biso   1.000  Zn
  Zn8      1.0000 0.88130  0.89852  0.17470  Biso   1.000  Zn
  Zn9      1.0000 0.07414  0.62331  0.35084  Biso   1.000  Zn
  Zn10     1.0000 0.17276  0.15024  0.03020  Biso   1.000  Zn
  Zn11     1.0000 0.17667  0.85093  0.53488  Biso   1.000  Zn
  Zn12     1.0000 0.88091  0.10332  0.67270  Biso   1.000  Zn
  I19      1.0000 0.51331  0.86555  0.88424  Biso   1.000  I
  I20      1.0000 0.60494  0.76354  0.82067  Biso   1.000  I
  I21      1.0000 0.85803  0.89461  0.24522  Biso   1.000  I
  I22      1.0000 0.89749  0.75692  0.13697  Biso   1.000  I
  I23      1.0000 0.86295  0.11105  0.74596  Biso   1.000  I
  I24      1.0000 0.89912  0.23991  0.63175  Biso   1.000  I
  N25      1.0000 0.61200  0.94690  0.90410  Biso   1.000  N
  C73      1.0000 0.64400  0.90820  0.92520  Biso   1.000  C
  H49      1.0000 0.64900  0.84730  0.91800  Biso   1.000  H
  C74      1.0000 0.66990  0.95220  0.95680  Biso   1.000  C
  H50      1.0000 0.69210  0.92150  0.97170  Biso   1.000  H
  C75      1.0000 0.66360  0.04200  0.96730  Biso   1.000  C
  C76      1.0000 0.62910  0.08100  0.94760  Biso   1.000  C
  H51      1.0000 0.62220  0.13930  0.95640  Biso   1.000  H
  C77      1.0000 0.60520  0.03260  0.91490  Biso   1.000  C
  H52      1.0000 0.58280  0.06150  0.89930  Biso   1.000  H
  N26      1.0000 0.84060  0.96870  0.12950  Biso   1.000  N
  C78      1.0000 0.83430  0.05450  0.13680  Biso   1.000  C
  H53      1.0000 0.85090  0.08450  0.16040  Biso   1.000  H
  C79      1.0000 0.80460  0.10320  0.11190  Biso   1.000  C
  H54      1.0000 0.80110  0.16560  0.11810  Biso   1.000  H
  C80      1.0000 0.78010  0.05950  0.07770  Biso   1.000  C
  C81      1.0000 0.78760  0.96970  0.06910  Biso   1.000  C
  H55      1.0000 0.77210  0.93840  0.04490  Biso   1.000  H
  C82      1.0000 0.81760  0.92650  0.09590  Biso   1.000  C
  H56      1.0000 0.82230  0.86430  0.09040  Biso   1.000  H
  N27      1.0000 0.68670  0.51230  0.03790  Biso   1.000  N
  C83      1.0000 0.72110  0.48020  0.05650  Biso   1.000  C
  H57      1.0000 0.74020  0.52180  0.07020  Biso   1.000  H
  C84      1.0000 0.72980  0.38870  0.05640  Biso   1.000  C
  H58      1.0000 0.75470  0.36790  0.06910  Biso   1.000  H
  C85      1.0000 0.70190  0.32780  0.03760  Biso   1.000  C
  C86      1.0000 0.66630  0.36060  0.01810  Biso   1.000  C
  H59      1.0000 0.64700  0.32050  0.00340  Biso   1.000  H
  C87      1.0000 0.65950  0.45210  0.02040  Biso   1.000  C
  H60      1.0000 0.63460  0.47390  0.00920  Biso   1.000  H
  C88      1.0000 0.69190  0.09540  0.99980  Biso   1.000  C
  N28      1.0000 0.72330  0.05410  0.02120  Biso   1.000  N
  C89      1.0000 0.74640  0.10590  0.05120  Biso   1.000  C
  N29      1.0000 0.74060  0.19330  0.05830  Biso   1.000  N
  C90      1.0000 0.70940  0.22900  0.03380  Biso   1.000  C
  N30      1.0000 0.68340  0.18340  0.00520  Biso   1.000  N
  N31      1.0000 0.92580  0.98920  0.18170  Biso   1.000  N
  C91      1.0000 0.94110  0.02990  0.21900  Biso   1.000  C
  H61      1.0000 0.93110  0.01900  0.24410  Biso   1.000  H
  C92      1.0000 0.97130  0.08770  0.22270  Biso   1.000  C
  H62      1.0000 0.98190  0.11640  0.25000  Biso   1.000  H
  C93      1.0000 0.98600  0.10390  0.18740  Biso   1.000  C
  C94      1.0000 0.96950  0.06500  0.14680  Biso   1.000  C
  H63      1.0000 0.97880  0.07610  0.12120  Biso   1.000  H
  C95      1.0000 0.93910  0.00980  0.14640  Biso   1.000  C
  H64      1.0000 0.92640  0.98430  0.11910  Biso   1.000  H
  N32      1.0000 0.06480  0.51660  0.30590  Biso   1.000  N
  C96      1.0000 0.03410  0.46470  0.29850  Biso   1.000  C
  H65      1.0000 0.01440  0.47990  0.31270  Biso   1.000  H
  C97      1.0000 0.02950  0.38970  0.27120  Biso   1.000  C
  H66      1.0000 0.00730  0.35340  0.26720  Biso   1.000  H
  C98      1.0000 0.05730  0.36860  0.25000  Biso   1.000  C
  C99      1.0000 0.09040  0.42070  0.25790  Biso   1.000  C
  H67      1.0000 0.11070  0.40640  0.24460  Biso   1.000  H
  C100     1.0000 0.09190  0.49380  0.28600  Biso   1.000  C
  H68      1.0000 0.11400  0.53050  0.29140  Biso   1.000  H
  N33      1.0000 0.14030  0.17010  0.07590  Biso   1.000  N
  C101     1.0000 0.15370  0.20970  0.11370  Biso   1.000  C
  H69      1.0000 0.17940  0.22820  0.12100  Biso   1.000  H
  C102     1.0000 0.13120  0.22530  0.14360  Biso   1.000  C
  H70      1.0000 0.14170  0.25390  0.17090  Biso   1.000  H
  C103     1.0000 0.09430  0.19980  0.13360  Biso   1.000  C
  C104     1.0000 0.08000  0.16060  0.09310  Biso   1.000  C
  H71      1.0000 0.05440  0.14220  0.08450  Biso   1.000  H
  C105     1.0000 0.10410  0.14890  0.06540  Biso   1.000  C
  H72      1.0000 0.09400  0.12400  0.03710  Biso   1.000  H
  C106     1.0000 0.01950  0.16650  0.19000  Biso   1.000  C
  N34      1.0000 0.02470  0.23100  0.22070  Biso   1.000  N
  C107     1.0000 0.05270  0.28870  0.21940  Biso   1.000  C
  N35      1.0000 0.07580  0.28330  0.19260  Biso   1.000  N
  C108     1.0000 0.06970  0.21290  0.16420  Biso   1.000  C
  N36      1.0000 0.04050  0.15460  0.16040  Biso   1.000  N
  N37      1.0000 0.11490  0.55800  0.39820  Biso   1.000  N
  C109     1.0000 0.10330  0.48120  0.41520  Biso   1.000  C
  H73      1.0000 0.07750  0.46340  0.40790  Biso   1.000  H
  C110     1.0000 0.13000  0.42940  0.44360  Biso   1.000  C
  H74      1.0000 0.12350  0.36960  0.45110  Biso   1.000  H
  C111     1.0000 0.16500  0.46130  0.46110  Biso   1.000  C
  C112     1.0000 0.17540  0.54320  0.44580  Biso   1.000  C
  H75      1.0000 0.20000  0.56720  0.45690  Biso   1.000  H
  C113     1.0000 0.14920  0.59010  0.41380  Biso   1.000  C
  H76      1.0000 0.15620  0.64660  0.40310  Biso   1.000  H
  N38      1.0000 0.18680  0.99030  0.53590  Biso   1.000  N
  C114     1.0000 0.16270  0.04690  0.50950  Biso   1.000  C
  H77      1.0000 0.14040  0.02190  0.49150  Biso   1.000  H
  C115     1.0000 0.16870  0.13810  0.50740  Biso   1.000  C
  H78      1.0000 0.15060  0.17550  0.48850  Biso   1.000  H
  C116     1.0000 0.20110  0.17590  0.53280  Biso   1.000  C
  C117     1.0000 0.22660  0.11890  0.56020  Biso   1.000  C
  H79      1.0000 0.24930  0.14260  0.57810  Biso   1.000  H
  C118     1.0000 0.21830  0.02770  0.56090  Biso   1.000  C
  H80      1.0000 0.23570  0.98900  0.58000  Biso   1.000  H
  N39      1.0000 0.33860  0.53580  0.63010  Biso   1.000  N
  C119     1.0000 0.31480  0.57970  0.59620  Biso   1.000  C
  H81      1.0000 0.31900  0.64230  0.59130  Biso   1.000  H
  C120     1.0000 0.28510  0.53680  0.56930  Biso   1.000  C
  H82      1.0000 0.26880  0.56990  0.54650  Biso   1.000  H
  C121     1.0000 0.27850  0.44410  0.57510  Biso   1.000  C
  C122     1.0000 0.30310  0.39870  0.60860  Biso   1.000  C
  H83      1.0000 0.30010  0.33530  0.61310  Biso   1.000  H
  C123     1.0000 0.33240  0.44710  0.63560  Biso   1.000  C
  H84      1.0000 0.34870  0.41570  0.65910  Biso   1.000  H
  C124     1.0000 0.19180  0.40800  0.49470  Biso   1.000  C
  N40      1.0000 0.18290  0.32220  0.50040  Biso   1.000  N
  C125     1.0000 0.20880  0.27420  0.52910  Biso   1.000  C
  N41      1.0000 0.24020  0.30980  0.55420  Biso   1.000  N
  C126     1.0000 0.24620  0.39980  0.54700  Biso   1.000  C
  N42      1.0000 0.22310  0.44990  0.51630  Biso   1.000  N
  N43      1.0000 0.14400  0.83020  0.58010  Biso   1.000  N
  C127     1.0000 0.15320  0.77680  0.61570  Biso   1.000  C
  H85      1.0000 0.17740  0.74920  0.62190  Biso   1.000  H
  C128     1.0000 0.13030  0.75930  0.64360  Biso   1.000  C
  H86      1.0000 0.13810  0.71920  0.66790  Biso   1.000  H
  C129     1.0000 0.09490  0.80180  0.63560  Biso   1.000  C
  C130     1.0000 0.08520  0.85920  0.59850  Biso   1.000  C
  H87      1.0000 0.06180  0.89080  0.59230  Biso   1.000  H
  C131     1.0000 0.10980  0.86900  0.57150  Biso   1.000  C
  H88      1.0000 0.10230  0.90480  0.54560  Biso   1.000  H
  N44      1.0000 0.92550  0.01510  0.67900  Biso   1.000  N
  C132     1.0000 0.94150  0.97680  0.71760  Biso   1.000  C
  H89      1.0000 0.93160  0.98980  0.74260  Biso   1.000  H
  C133     1.0000 0.97230  0.91860  0.72220  Biso   1.000  C
  H90      1.0000 0.98290  0.89120  0.74980  Biso   1.000  H
  C134     1.0000 0.98760  0.90060  0.68610  Biso   1.000  C
  C135     1.0000 0.96950  0.93600  0.64670  Biso   1.000  C
  H91      1.0000 0.97810  0.92020  0.62110  Biso   1.000  H
  C136     1.0000 0.93910  0.99450  0.64280  Biso   1.000  C
  H92      1.0000 0.92770  0.02040  0.61510  Biso   1.000  H
  N45      1.0000 0.06330  0.49280  0.80950  Biso   1.000  N
  C137     1.0000 0.08990  0.50970  0.78780  Biso   1.000  C
  H93      1.0000 0.11140  0.47110  0.79240  Biso   1.000  H
  C138     1.0000 0.08730  0.58180  0.75840  Biso   1.000  C
  H94      1.0000 0.10660  0.59200  0.74300  Biso   1.000  H
  C139     1.0000 0.05610  0.63870  0.75200  Biso   1.000  C
  C140     1.0000 0.02830  0.61960  0.77460  Biso   1.000  C
  H95      1.0000 0.00620  0.65620  0.77030  Biso   1.000  H
  C141     1.0000 0.03310  0.54620  0.80340  Biso   1.000  C
  H96      1.0000 0.01420  0.53390  0.81920  Biso   1.000  H
  C142     1.0000 0.06910  0.78860  0.66470  Biso   1.000  C
  N46      1.0000 0.04080  0.84830  0.66080  Biso   1.000  N
  C143     1.0000 0.01940  0.83740  0.68960  Biso   1.000  C
  N47      1.0000 0.02440  0.77530  0.72160  Biso   1.000  N
  C144     1.0000 0.05240  0.71600  0.72070  Biso   1.000  C
  N48      1.0000 0.07600  0.71960  0.69340  Biso   1.000  N
  I25      1.0000 0.01459  0.63790  0.38278  Biso   1.000  I
  I26      1.0000 0.10222  0.74813  0.31525  Biso   1.000  I
  I27      1.0000 0.23090  0.24410  0.04990  Biso   1.000  I
  I28      1.0000 0.12499  0.15997  0.95546  Biso   1.000  I
  I29      1.0000 0.24210  0.77700  0.56101  Biso   1.000  I
  I30      1.0000 0.13035  0.81720  0.46136  Biso   1.000  I
  I31      1.0000 0.02790  0.64620  0.38350  Biso   1.000  I
  I32      1.0000 0.11200  0.74850  0.30560  Biso   1.000  I
  I33      1.0000 0.24230  0.24180  0.05790  Biso   1.000  I
  I34      1.0000 0.13330  0.16700  0.95740  Biso   1.000  I
  I35      1.0000 0.23740  0.76910  0.56100  Biso   1.000  I
  I36      1.0000 0.13340  0.81960  0.45980  Biso   1.000  I
  Zn13     1.0000 0.92783  0.38512  0.14519  Biso   1.000  Zn
  Zn14     1.0000 0.61870  0.39852  0.82530  Biso   1.000  Zn
  Zn15     1.0000 0.42586  0.12331  0.64916  Biso   1.000  Zn
  Zn16     1.0000 0.32724  0.65024  0.96980  Biso   1.000  Zn
  Zn17     1.0000 0.32333  0.35093  0.46512  Biso   1.000  Zn
  Zn18     1.0000 0.61909  0.60332  0.32730  Biso   1.000  Zn
  I37      1.0000 0.98669  0.36555  0.11576  Biso   1.000  I
  I38      1.0000 0.89506  0.26354  0.17933  Biso   1.000  I
  I39      1.0000 0.64197  0.39461  0.75478  Biso   1.000  I
  I40      1.0000 0.60251  0.25692  0.86303  Biso   1.000  I
  I41      1.0000 0.63705  0.61105  0.25404  Biso   1.000  I
  I42      1.0000 0.60088  0.73991  0.36825  Biso   1.000  I
  N49      1.0000 0.88800  0.44690  0.09590  Biso   1.000  N
  C145     1.0000 0.85600  0.40820  0.07480  Biso   1.000  C
  H97      1.0000 0.85100  0.34730  0.08200  Biso   1.000  H
  C146     1.0000 0.83010  0.45220  0.04320  Biso   1.000  C
  H98      1.0000 0.80790  0.42150  0.02830  Biso   1.000  H
  C147     1.0000 0.83640  0.54200  0.03270  Biso   1.000  C
  C148     1.0000 0.87090  0.58100  0.05240  Biso   1.000  C
  H99      1.0000 0.87780  0.63930  0.04360  Biso   1.000  H
  C149     1.0000 0.89480  0.53260  0.08510  Biso   1.000  C
  H100     1.0000 0.91720  0.56150  0.10070  Biso   1.000  H
  N50      1.0000 0.65940  0.46870  0.87050  Biso   1.000  N
  C150     1.0000 0.66570  0.55450  0.86320  Biso   1.000  C
  H101     1.0000 0.64910  0.58450  0.83960  Biso   1.000  H
  C151     1.0000 0.69540  0.60320  0.88810  Biso   1.000  C
  H102     1.0000 0.69890  0.66560  0.88190  Biso   1.000  H
  C152     1.0000 0.71990  0.55950  0.92230  Biso   1.000  C
  C153     1.0000 0.71240  0.46970  0.93090  Biso   1.000  C
  H103     1.0000 0.72790  0.43840  0.95510  Biso   1.000  H
  C154     1.0000 0.68240  0.42650  0.90410  Biso   1.000  C
  H104     1.0000 0.67770  0.36430  0.90960  Biso   1.000  H
  N51      1.0000 0.81330  0.01230  0.96210  Biso   1.000  N
  C155     1.0000 0.77890  0.98020  0.94350  Biso   1.000  C
  H105     1.0000 0.75980  0.02180  0.92980  Biso   1.000  H
  C156     1.0000 0.77020  0.88870  0.94360  Biso   1.000  C
  H106     1.0000 0.74530  0.86790  0.93090  Biso   1.000  H
  C157     1.0000 0.79810  0.82780  0.96240  Biso   1.000  C
  C158     1.0000 0.83370  0.86060  0.98190  Biso   1.000  C
  H107     1.0000 0.85300  0.82050  0.99660  Biso   1.000  H
  C159     1.0000 0.84050  0.95210  0.97960  Biso   1.000  C
  H108     1.0000 0.86540  0.97390  0.99080  Biso   1.000  H
  C160     1.0000 0.80810  0.59540  0.00020  Biso   1.000  C
  N52      1.0000 0.77670  0.55410  0.97880  Biso   1.000  N
  C161     1.0000 0.75360  0.60590  0.94880  Biso   1.000  C
  N53      1.0000 0.75940  0.69330  0.94170  Biso   1.000  N
  C162     1.0000 0.79060  0.72900  0.96620  Biso   1.000  C
  N54      1.0000 0.81660  0.68340  0.99480  Biso   1.000  N
  N55      1.0000 0.57420  0.48920  0.81830  Biso   1.000  N
  C163     1.0000 0.55890  0.52990  0.78100  Biso   1.000  C
  H109     1.0000 0.56890  0.51900  0.75590  Biso   1.000  H
  C164     1.0000 0.52870  0.58770  0.77730  Biso   1.000  C
  H110     1.0000 0.51810  0.61640  0.75000  Biso   1.000  H
  C165     1.0000 0.51400  0.60390  0.81260  Biso   1.000  C
  C166     1.0000 0.53050  0.56500  0.85320  Biso   1.000  C
  H111     1.0000 0.52120  0.57610  0.87880  Biso   1.000  H
  C167     1.0000 0.56090  0.50980  0.85360  Biso   1.000  C
  H112     1.0000 0.57360  0.48430  0.88090  Biso   1.000  H
  N56      1.0000 0.43520  0.01660  0.69410  Biso   1.000  N
  C168     1.0000 0.46590  0.96470  0.70150  Biso   1.000  C
  H113     1.0000 0.48560  0.97990  0.68730  Biso   1.000  H
  C169     1.0000 0.47050  0.88970  0.72880  Biso   1.000  C
  H114     1.0000 0.49270  0.85340  0.73280  Biso   1.000  H
  C170     1.0000 0.44270  0.86860  0.75000  Biso   1.000  C
  C171     1.0000 0.40960  0.92070  0.74210  Biso   1.000  C
  H115     1.0000 0.38930  0.90640  0.75540  Biso   1.000  H
  C172     1.0000 0.40810  0.99380  0.71400  Biso   1.000  C
  H116     1.0000 0.38600  0.03050  0.70860  Biso   1.000  H
  N57      1.0000 0.35970  0.67010  0.92410  Biso   1.000  N
  C173     1.0000 0.34630  0.70970  0.88630  Biso   1.000  C
  H117     1.0000 0.32060  0.72820  0.87900  Biso   1.000  H
  C174     1.0000 0.36880  0.72530  0.85640  Biso   1.000  C
  H118     1.0000 0.35830  0.75390  0.82910  Biso   1.000  H
  C175     1.0000 0.40570  0.69980  0.86640  Biso   1.000  C
  C176     1.0000 0.42000  0.66060  0.90690  Biso   1.000  C
  H119     1.0000 0.44560  0.64220  0.91550  Biso   1.000  H
  C177     1.0000 0.39590  0.64890  0.93460  Biso   1.000  C
  H120     1.0000 0.40600  0.62400  0.96290  Biso   1.000  H
  C178     1.0000 0.48050  0.66650  0.81000  Biso   1.000  C
  N58      1.0000 0.47530  0.73100  0.77930  Biso   1.000  N
  C179     1.0000 0.44730  0.78870  0.78060  Biso   1.000  C
  N59      1.0000 0.42420  0.78330  0.80740  Biso   1.000  N
  C180     1.0000 0.43030  0.71290  0.83580  Biso   1.000  C
  N60      1.0000 0.45950  0.65460  0.83960  Biso   1.000  N
  N61      1.0000 0.38510  0.05800  0.60180  Biso   1.000  N
  C181     1.0000 0.39670  0.98120  0.58480  Biso   1.000  C
  H121     1.0000 0.42250  0.96340  0.59210  Biso   1.000  H
  C182     1.0000 0.37000  0.92940  0.55640  Biso   1.000  C
  H122     1.0000 0.37650  0.86960  0.54890  Biso   1.000  H
  C183     1.0000 0.33500  0.96130  0.53890  Biso   1.000  C
  C184     1.0000 0.32460  0.04320  0.55420  Biso   1.000  C
  H123     1.0000 0.30000  0.06720  0.54310  Biso   1.000  H
  C185     1.0000 0.35080  0.09010  0.58620  Biso   1.000  C
  H124     1.0000 0.34380  0.14660  0.59690  Biso   1.000  H
  N62      1.0000 0.31320  0.49030  0.46410  Biso   1.000  N
  C186     1.0000 0.33730  0.54690  0.49050  Biso   1.000  C
  H125     1.0000 0.35960  0.52190  0.50850  Biso   1.000  H
  C187     1.0000 0.33130  0.63810  0.49260  Biso   1.000  C
  H126     1.0000 0.34940  0.67550  0.51150  Biso   1.000  H
  C188     1.0000 0.29890  0.67590  0.46720  Biso   1.000  C
  C189     1.0000 0.27340  0.61890  0.43980  Biso   1.000  C
  H127     1.0000 0.25070  0.64260  0.42190  Biso   1.000  H
  C190     1.0000 0.28170  0.52770  0.43910  Biso   1.000  C
  H128     1.0000 0.26430  0.48900  0.42000  Biso   1.000  H
  N63      1.0000 0.16140  0.03580  0.36990  Biso   1.000  N
  C191     1.0000 0.18520  0.07970  0.40380  Biso   1.000  C
  H129     1.0000 0.18100  0.14230  0.40870  Biso   1.000  H
  C192     1.0000 0.21490  0.03680  0.43070  Biso   1.000  C
  H130     1.0000 0.23120  0.06990  0.45350  Biso   1.000  H
  C193     1.0000 0.22150  0.94410  0.42490  Biso   1.000  C
  C194     1.0000 0.19690  0.89870  0.39140  Biso   1.000  C
  H131     1.0000 0.19990  0.83530  0.38690  Biso   1.000  H
  C195     1.0000 0.16760  0.94710  0.36440  Biso   1.000  C
  H132     1.0000 0.15130  0.91570  0.34090  Biso   1.000  H
  C196     1.0000 0.30820  0.90800  0.50530  Biso   1.000  C
  N64      1.0000 0.31710  0.82220  0.49960  Biso   1.000  N
  C197     1.0000 0.29120  0.77420  0.47090  Biso   1.000  C
  N65      1.0000 0.25980  0.80980  0.44580  Biso   1.000  N
  C198     1.0000 0.25380  0.89980  0.45300  Biso   1.000  C
  N66      1.0000 0.27690  0.94990  0.48370  Biso   1.000  N
  N67      1.0000 0.35600  0.33020  0.41990  Biso   1.000  N
  C199     1.0000 0.34680  0.27680  0.38430  Biso   1.000  C
  H133     1.0000 0.32260  0.24920  0.37810  Biso   1.000  H
  C200     1.0000 0.36970  0.25930  0.35640  Biso   1.000  C
  H134     1.0000 0.36190  0.21920  0.33210  Biso   1.000  H
  C201     1.0000 0.40510  0.30180  0.36440  Biso   1.000  C
  C202     1.0000 0.41480  0.35920  0.40150  Biso   1.000  C
  H135     1.0000 0.43820  0.39080  0.40770  Biso   1.000  H
  C203     1.0000 0.39020  0.36900  0.42850  Biso   1.000  C
  H136     1.0000 0.39770  0.40480  0.45440  Biso   1.000  H
  N68      1.0000 0.57450  0.51510  0.32100  Biso   1.000  N
  C204     1.0000 0.55850  0.47680  0.28240  Biso   1.000  C
  H137     1.0000 0.56840  0.48980  0.25740  Biso   1.000  H
  C205     1.0000 0.52770  0.41860  0.27780  Biso   1.000  C
  H138     1.0000 0.51710  0.39120  0.25020  Biso   1.000  H
  C206     1.0000 0.51240  0.40060  0.31390  Biso   1.000  C
  C207     1.0000 0.53050  0.43600  0.35330  Biso   1.000  C
  H139     1.0000 0.52190  0.42020  0.37890  Biso   1.000  H
  C208     1.0000 0.56090  0.49450  0.35720  Biso   1.000  C
  H140     1.0000 0.57230  0.52040  0.38490  Biso   1.000  H
  N69      1.0000 0.43670  0.99280  0.19050  Biso   1.000  N
  C209     1.0000 0.41010  0.00970  0.21220  Biso   1.000  C
  H141     1.0000 0.38860  0.97110  0.20760  Biso   1.000  H
  C210     1.0000 0.41270  0.08180  0.24160  Biso   1.000  C
  H142     1.0000 0.39340  0.09200  0.25700  Biso   1.000  H
  C211     1.0000 0.44390  0.13870  0.24800  Biso   1.000  C
  C212     1.0000 0.47170  0.11960  0.22540  Biso   1.000  C
  H143     1.0000 0.49380  0.15620  0.22970  Biso   1.000  H
  C213     1.0000 0.46690  0.04620  0.19660  Biso   1.000  C
  H144     1.0000 0.48580  0.03390  0.18080  Biso   1.000  H
  C214     1.0000 0.43090  0.28860  0.33530  Biso   1.000  C
  N70      1.0000 0.45920  0.34830  0.33920  Biso   1.000  N
  C215     1.0000 0.48060  0.33740  0.31040  Biso   1.000  C
  N71      1.0000 0.47560  0.27530  0.27840  Biso   1.000  N
  C216     1.0000 0.44760  0.21600  0.27930  Biso   1.000  C
  N72      1.0000 0.42400  0.21960  0.30660  Biso   1.000  N
  I43      1.0000 0.48541  0.13790  0.61722  Biso   1.000  I
  I44      1.0000 0.39778  0.24813  0.68475  Biso   1.000  I
  I45      1.0000 0.26910  0.74410  0.95010  Biso   1.000  I
  I46      1.0000 0.37501  0.65997  0.04454  Biso   1.000  I
  I47      1.0000 0.25790  0.27700  0.43899  Biso   1.000  I
  I48      1.0000 0.36965  0.31720  0.53864  Biso   1.000  I
  I49      1.0000 0.47210  0.14620  0.61650  Biso   1.000  I
  I50      1.0000 0.38800  0.24850  0.69440  Biso   1.000  I
  I51      1.0000 0.25770  0.74180  0.94210  Biso   1.000  I
  I52      1.0000 0.36670  0.66700  0.04260  Biso   1.000  I
  I53      1.0000 0.26260  0.26910  0.43900  Biso   1.000  I
  I54      1.0000 0.36660  0.31960  0.54020  Biso   1.000  I
  Zn19     1.0000 0.42783  0.88512  0.14519  Biso   1.000  Zn
  Zn20     1.0000 0.11870  0.89852  0.82530  Biso   1.000  Zn
  Zn21     1.0000 0.92586  0.62331  0.64916  Biso   1.000  Zn
  Zn22     1.0000 0.82724  0.15024  0.96980  Biso   1.000  Zn
  Zn23     1.0000 0.82333  0.85093  0.46512  Biso   1.000  Zn
  Zn24     1.0000 0.11909  0.10332  0.32730  Biso   1.000  Zn
  I55      1.0000 0.48669  0.86555  0.11576  Biso   1.000  I
  I56      1.0000 0.39506  0.76354  0.17933  Biso   1.000  I
  I57      1.0000 0.14197  0.89461  0.75478  Biso   1.000  I
  I58      1.0000 0.10251  0.75692  0.86303  Biso   1.000  I
  I59      1.0000 0.13705  0.11105  0.25404  Biso   1.000  I
  I60      1.0000 0.10088  0.23991  0.36825  Biso   1.000  I
  N73      1.0000 0.38800  0.94690  0.09590  Biso   1.000  N
  C217     1.0000 0.35600  0.90820  0.07480  Biso   1.000  C
  H145     1.0000 0.35100  0.84730  0.08200  Biso   1.000  H
  C218     1.0000 0.33010  0.95220  0.04320  Biso   1.000  C
  H146     1.0000 0.30790  0.92150  0.02830  Biso   1.000  H
  C219     1.0000 0.33640  0.04200  0.03270  Biso   1.000  C
  C220     1.0000 0.37090  0.08100  0.05240  Biso   1.000  C
  H147     1.0000 0.37780  0.13930  0.04360  Biso   1.000  H
  C221     1.0000 0.39480  0.03260  0.08510  Biso   1.000  C
  H148     1.0000 0.41720  0.06150  0.10070  Biso   1.000  H
  N74      1.0000 0.15940  0.96870  0.87050  Biso   1.000  N
  C222     1.0000 0.16570  0.05450  0.86320  Biso   1.000  C
  H149     1.0000 0.14910  0.08450  0.83960  Biso   1.000  H
  C223     1.0000 0.19540  0.10320  0.88810  Biso   1.000  C
  H150     1.0000 0.19890  0.16560  0.88190  Biso   1.000  H
  C224     1.0000 0.21990  0.05950  0.92230  Biso   1.000  C
  C225     1.0000 0.21240  0.96970  0.93090  Biso   1.000  C
  H151     1.0000 0.22790  0.93840  0.95510  Biso   1.000  H
  C226     1.0000 0.18240  0.92650  0.90410  Biso   1.000  C
  H152     1.0000 0.17770  0.86430  0.90960  Biso   1.000  H
  N75      1.0000 0.31330  0.51230  0.96210  Biso   1.000  N
  C227     1.0000 0.27890  0.48020  0.94350  Biso   1.000  C
  H153     1.0000 0.25980  0.52180  0.92980  Biso   1.000  H
  C228     1.0000 0.27020  0.38870  0.94360  Biso   1.000  C
  H154     1.0000 0.24530  0.36790  0.93090  Biso   1.000  H
  C229     1.0000 0.29810  0.32780  0.96240  Biso   1.000  C
  C230     1.0000 0.33370  0.36060  0.98190  Biso   1.000  C
  H155     1.0000 0.35300  0.32050  0.99660  Biso   1.000  H
  C231     1.0000 0.34050  0.45210  0.97960  Biso   1.000  C
  H156     1.0000 0.36540  0.47390  0.99080  Biso   1.000  H
  C232     1.0000 0.30810  0.09540  0.00020  Biso   1.000  C
  N76      1.0000 0.27670  0.05410  0.97880  Biso   1.000  N
  C233     1.0000 0.25360  0.10590  0.94880  Biso   1.000  C
  N77      1.0000 0.25940  0.19330  0.94170  Biso   1.000  N
  C234     1.0000 0.29060  0.22900  0.96620  Biso   1.000  C
  N78      1.0000 0.31660  0.18340  0.99480  Biso   1.000  N
  N79      1.0000 0.07420  0.98920  0.81830  Biso   1.000  N
  C235     1.0000 0.05890  0.02990  0.78100  Biso   1.000  C
  H157     1.0000 0.06890  0.01900  0.75590  Biso   1.000  H
  C236     1.0000 0.02870  0.08770  0.77730  Biso   1.000  C
  H158     1.0000 0.01810  0.11640  0.75000  Biso   1.000  H
  C237     1.0000 0.01400  0.10390  0.81260  Biso   1.000  C
  C238     1.0000 0.03050  0.06500  0.85320  Biso   1.000  C
  H159     1.0000 0.02120  0.07610  0.87880  Biso   1.000  H
  C239     1.0000 0.06090  0.00980  0.85360  Biso   1.000  C
  H160     1.0000 0.07360  0.98430  0.88090  Biso   1.000  H
  N80      1.0000 0.93520  0.51660  0.69410  Biso   1.000  N
  C240     1.0000 0.96590  0.46470  0.70150  Biso   1.000  C
  H161     1.0000 0.98560  0.47990  0.68730  Biso   1.000  H
  C241     1.0000 0.97050  0.38970  0.72880  Biso   1.000  C
  H162     1.0000 0.99270  0.35340  0.73280  Biso   1.000  H
  C242     1.0000 0.94270  0.36860  0.75000  Biso   1.000  C
  C243     1.0000 0.90960  0.42070  0.74210  Biso   1.000  C
  H163     1.0000 0.88930  0.40640  0.75540  Biso   1.000  H
  C244     1.0000 0.90810  0.49380  0.71400  Biso   1.000  C
  H164     1.0000 0.88600  0.53050  0.70860  Biso   1.000  H
  N81      1.0000 0.85970  0.17010  0.92410  Biso   1.000  N
  C245     1.0000 0.84630  0.20970  0.88630  Biso   1.000  C
  H165     1.0000 0.82060  0.22820  0.87900  Biso   1.000  H
  C246     1.0000 0.86880  0.22530  0.85640  Biso   1.000  C
  H166     1.0000 0.85830  0.25390  0.82910  Biso   1.000  H
  C247     1.0000 0.90570  0.19980  0.86640  Biso   1.000  C
  C248     1.0000 0.92000  0.16060  0.90690  Biso   1.000  C
  H167     1.0000 0.94560  0.14220  0.91550  Biso   1.000  H
  C249     1.0000 0.89590  0.14890  0.93460  Biso   1.000  C
  H168     1.0000 0.90600  0.12400  0.96290  Biso   1.000  H
  C250     1.0000 0.98050  0.16650  0.81000  Biso   1.000  C
  N82      1.0000 0.97530  0.23100  0.77930  Biso   1.000  N
  C251     1.0000 0.94730  0.28870  0.78060  Biso   1.000  C
  N83      1.0000 0.92420  0.28330  0.80740  Biso   1.000  N
  C252     1.0000 0.93030  0.21290  0.83580  Biso   1.000  C
  N84      1.0000 0.95950  0.15460  0.83960  Biso   1.000  N
  N85      1.0000 0.88510  0.55800  0.60180  Biso   1.000  N
  C253     1.0000 0.89670  0.48120  0.58480  Biso   1.000  C
  H169     1.0000 0.92250  0.46340  0.59210  Biso   1.000  H
  C254     1.0000 0.87000  0.42940  0.55640  Biso   1.000  C
  H170     1.0000 0.87650  0.36960  0.54890  Biso   1.000  H
  C255     1.0000 0.83500  0.46130  0.53890  Biso   1.000  C
  C256     1.0000 0.82460  0.54320  0.55420  Biso   1.000  C
  H171     1.0000 0.80000  0.56720  0.54310  Biso   1.000  H
  C257     1.0000 0.85080  0.59010  0.58620  Biso   1.000  C
  H172     1.0000 0.84380  0.64660  0.59690  Biso   1.000  H
  N86      1.0000 0.81320  0.99030  0.46410  Biso   1.000  N
  C258     1.0000 0.83730  0.04690  0.49050  Biso   1.000  C
  H173     1.0000 0.85960  0.02190  0.50850  Biso   1.000  H
  C259     1.0000 0.83130  0.13810  0.49260  Biso   1.000  C
  H174     1.0000 0.84940  0.17550  0.51150  Biso   1.000  H
  C260     1.0000 0.79890  0.17590  0.46720  Biso   1.000  C
  C261     1.0000 0.77340  0.11890  0.43980  Biso   1.000  C
  H175     1.0000 0.75070  0.14260  0.42190  Biso   1.000  H
  C262     1.0000 0.78170  0.02770  0.43910  Biso   1.000  C
  H176     1.0000 0.76430  0.98900  0.42000  Biso   1.000  H
  N87      1.0000 0.66140  0.53580  0.36990  Biso   1.000  N
  C263     1.0000 0.68520  0.57970  0.40380  Biso   1.000  C
  H177     1.0000 0.68100  0.64230  0.40870  Biso   1.000  H
  C264     1.0000 0.71490  0.53680  0.43070  Biso   1.000  C
  H178     1.0000 0.73120  0.56990  0.45350  Biso   1.000  H
  C265     1.0000 0.72150  0.44410  0.42490  Biso   1.000  C
  C266     1.0000 0.69690  0.39870  0.39140  Biso   1.000  C
  H179     1.0000 0.69990  0.33530  0.38690  Biso   1.000  H
  C267     1.0000 0.66760  0.44710  0.36440  Biso   1.000  C
  H180     1.0000 0.65130  0.41570  0.34090  Biso   1.000  H
  C268     1.0000 0.80820  0.40800  0.50530  Biso   1.000  C
  N88      1.0000 0.81710  0.32220  0.49960  Biso   1.000  N
  C269     1.0000 0.79120  0.27420  0.47090  Biso   1.000  C
  N89      1.0000 0.75980  0.30980  0.44580  Biso   1.000  N
  C270     1.0000 0.75380  0.39980  0.45300  Biso   1.000  C
  N90      1.0000 0.77690  0.44990  0.48370  Biso   1.000  N
  N91      1.0000 0.85600  0.83020  0.41990  Biso   1.000  N
  C271     1.0000 0.84680  0.77680  0.38430  Biso   1.000  C
  H181     1.0000 0.82260  0.74920  0.37810  Biso   1.000  H
  C272     1.0000 0.86970  0.75930  0.35640  Biso   1.000  C
  H182     1.0000 0.86190  0.71920  0.33210  Biso   1.000  H
  C273     1.0000 0.90510  0.80180  0.36440  Biso   1.000  C
  C274     1.0000 0.91480  0.85920  0.40150  Biso   1.000  C
  H183     1.0000 0.93820  0.89080  0.40770  Biso   1.000  H
  C275     1.0000 0.89020  0.86900  0.42850  Biso   1.000  C
  H184     1.0000 0.89770  0.90480  0.45440  Biso   1.000  H
  N92      1.0000 0.07450  0.01510  0.32100  Biso   1.000  N
  C276     1.0000 0.05850  0.97680  0.28240  Biso   1.000  C
  H185     1.0000 0.06840  0.98980  0.25740  Biso   1.000  H
  C277     1.0000 0.02770  0.91860  0.27780  Biso   1.000  C
  H186     1.0000 0.01710  0.89120  0.25020  Biso   1.000  H
  C278     1.0000 0.01240  0.90060  0.31390  Biso   1.000  C
  C279     1.0000 0.03050  0.93600  0.35330  Biso   1.000  C
  H187     1.0000 0.02190  0.92020  0.37890  Biso   1.000  H
  C280     1.0000 0.06090  0.99450  0.35720  Biso   1.000  C
  H188     1.0000 0.07230  0.02040  0.38490  Biso   1.000  H
  N93      1.0000 0.93670  0.49280  0.19050  Biso   1.000  N
  C281     1.0000 0.91010  0.50970  0.21220  Biso   1.000  C
  H189     1.0000 0.88860  0.47110  0.20760  Biso   1.000  H
  C282     1.0000 0.91270  0.58180  0.24160  Biso   1.000  C
  H190     1.0000 0.89340  0.59200  0.25700  Biso   1.000  H
  C283     1.0000 0.94390  0.63870  0.24800  Biso   1.000  C
  C284     1.0000 0.97170  0.61960  0.22540  Biso   1.000  C
  H191     1.0000 0.99380  0.65620  0.22970  Biso   1.000  H
  C285     1.0000 0.96690  0.54620  0.19660  Biso   1.000  C
  H192     1.0000 0.98580  0.53390  0.18080  Biso   1.000  H
  C286     1.0000 0.93090  0.78860  0.33530  Biso   1.000  C
  N94      1.0000 0.95920  0.84830  0.33920  Biso   1.000  N
  C287     1.0000 0.98060  0.83740  0.31040  Biso   1.000  C
  N95      1.0000 0.97560  0.77530  0.27840  Biso   1.000  N
  C288     1.0000 0.94760  0.71600  0.27930  Biso   1.000  C
  N96      1.0000 0.92400  0.71960  0.30660  Biso   1.000  N
  I61      1.0000 0.98541  0.63790  0.61722  Biso   1.000  I
  I62      1.0000 0.89778  0.74813  0.68475  Biso   1.000  I
  I63      1.0000 0.76910  0.24410  0.95010  Biso   1.000  I
  I64      1.0000 0.87501  0.15997  0.04454  Biso   1.000  I
  I65      1.0000 0.75790  0.77700  0.43899  Biso   1.000  I
  I66      1.0000 0.86965  0.81720  0.53864  Biso   1.000  I
  I67      1.0000 0.97210  0.64620  0.61650  Biso   1.000  I
  I68      1.0000 0.88800  0.74850  0.69440  Biso   1.000  I
  I69      1.0000 0.75770  0.24180  0.94210  Biso   1.000  I
  I70      1.0000 0.86670  0.16700  0.04260  Biso   1.000  I
  I71      1.0000 0.76260  0.76910  0.43900  Biso   1.000  I
  I72      1.0000 0.86660  0.81960  0.54020  Biso   1.000  I
  C289     1.0000 0.14600  0.48400  0.14080  Biso   1.000  C
  H193     1.0000 0.14950  0.42510  0.15750  Biso   1.000  H
  C290     1.0000 0.12950  0.55600  0.16870  Biso   1.000  C
  H194     1.0000 0.14090  0.54460  0.20050  Biso   1.000  H
  C291     1.0000 0.08760  0.53500  0.16030  Biso   1.000  C
  H195     1.0000 0.08420  0.47070  0.16790  Biso   1.000  H
  H196     1.0000 0.07600  0.57380  0.17960  Biso   1.000  H
  C292     1.0000 0.06810  0.55100  0.11360  Biso   1.000  C
  H197     1.0000 0.06800  0.61740  0.10710  Biso   1.000  H
  H198     1.0000 0.04150  0.53070  0.10860  Biso   1.000  H
  C293     1.0000 0.08810  0.49990  0.08350  Biso   1.000  C
  C294     1.0000 0.12450  0.46560  0.09710  Biso   1.000  C
  C295     1.0000 0.13930  0.40970  0.06920  Biso   1.000  C
  H199     1.0000 0.16420  0.38620  0.07850  Biso   1.000  H
  C296     1.0000 0.11760  0.38810  0.02780  Biso   1.000  C
  H200     1.0000 0.12770  0.34980  0.00870  Biso   1.000  H
  C297     1.0000 0.08120  0.42200  0.01420  Biso   1.000  C
  H201     1.0000 0.06640  0.40760  0.98590  Biso   1.000  H
  C298     1.0000 0.06640  0.47800  0.04210  Biso   1.000  C
  C299     1.0000 0.18540  0.51800  0.13690  Biso   1.000  C
  O1       1.0000 0.19570  0.55500  0.11590  Biso   1.000  O
  O2       1.0000 0.20690  0.48100  0.17350  Biso   1.000  O
  C300     1.0000 0.24900  0.49900  0.18500  Biso   1.000  C
  H202     1.0000 0.26070  0.46780  0.21200  Biso   1.000  H
  H203     1.0000 0.26000  0.47650  0.16070  Biso   1.000  H
  H204     1.0000 0.25360  0.56480  0.18820  Biso   1.000  H
  O3       1.0000 0.13860  0.64000  0.15900  Biso   1.000  O
  H205     1.0000 0.15180  0.63810  0.14050  Biso   1.000  H
  O4       1.0000 0.03070  0.52300  0.03000  Biso   1.000  O
  C301     1.0000 0.99190  0.49600  0.01600  Biso   1.000  C
  H206     1.0000 0.97590  0.55070  0.01070  Biso   1.000  H
  H207     1.0000 0.98850  0.46160  0.98820  Biso   1.000  H
  H208     1.0000 0.98490  0.45820  0.03830  Biso   1.000  H
  C302     1.0000 0.13410  0.55200  0.11910  Biso   1.000  C
  H209     1.0000 0.12900  0.50300  0.13940  Biso   1.000  H
  C303     1.0000 0.12440  0.64700  0.13760  Biso   1.000  C
  H210     1.0000 0.09750  0.64430  0.14000  Biso   1.000  H
  C304     1.0000 0.12610  0.71400  0.10170  Biso   1.000  C
  H211     1.0000 0.11840  0.77400  0.11110  Biso   1.000  H
  H212     1.0000 0.15290  0.71910  0.10010  Biso   1.000  H
  C305     1.0000 0.10380  0.69700  0.05660  Biso   1.000  C
  H213     1.0000 0.11760  0.72200  0.03520  Biso   1.000  H
  H214     1.0000 0.07940  0.73010  0.05230  Biso   1.000  H
  C306     1.0000 0.09620  0.59700  0.04750  Biso   1.000  C
  C307     1.0000 0.11420  0.52860  0.07530  Biso   1.000  C
  C308     1.0000 0.11210  0.43870  0.06090  Biso   1.000  C
  H215     1.0000 0.12450  0.39190  0.07990  Biso   1.000  H
  C309     1.0000 0.09210  0.41730  0.01860  Biso   1.000  C
  H216     1.0000 0.09060  0.35590  0.00880  Biso   1.000  H
  C310     1.0000 0.07400  0.48600  0.99080  Biso   1.000  C
  H217     1.0000 0.06030  0.47120  0.96200  Biso   1.000  H
  C311     1.0000 0.07610  0.57600  0.00530  Biso   1.000  C
  C312     1.0000 0.17680  0.55200  0.12090  Biso   1.000  C
  O5       1.0000 0.19310  0.57600  0.10210  Biso   1.000  O
  O6       1.0000 0.19160  0.50100  0.15670  Biso   1.000  O
  C313     1.0000 0.23420  0.50500  0.17400  Biso   1.000  C
  H218     1.0000 0.24160  0.46550  0.19950  Biso   1.000  H
  H219     1.0000 0.24650  0.48400  0.15070  Biso   1.000  H
  H220     1.0000 0.24190  0.56780  0.18180  Biso   1.000  H
  O7       1.0000 0.14530  0.66000  0.17810  Biso   1.000  O
  H221     1.0000 0.15950  0.70520  0.17820  Biso   1.000  H
  O8       1.0000 0.05900  0.65300  0.98020  Biso   1.000  O
  C314     1.0000 0.03800  0.72800  0.99300  Biso   1.000  C
  H222     1.0000 0.03020  0.76980  0.96790  Biso   1.000  H
  H223     1.0000 0.01540  0.70390  0.00120  Biso   1.000  H
  H224     1.0000 0.05360  0.76040  0.01770  Biso   1.000  H
  C315     1.0000 0.00000  0.82400  0.06060  Biso   1.000  C
  C316     1.0000 0.95600  0.80700  0.04800  Biso   1.000  C
  H225     1.0000 0.94560  0.80520  0.07460  Biso   1.000  H
  C317     1.0000 0.93520  0.87300  0.01600  Biso   1.000  C
  H226     1.0000 0.90940  0.88110  0.02050  Biso   1.000  H
  H227     1.0000 0.93310  0.85020  0.98550  Biso   1.000  H
  C318     1.0000 0.95600  0.96500  0.02100  Biso   1.000  C
  H228     1.0000 0.94040  0.01230  0.00240  Biso   1.000  H
  H229     1.0000 0.96110  0.98570  0.05210  Biso   1.000  H
  C319     1.0000 0.99200  0.94700  0.00600  Biso   1.000  C
  C320     1.0000 0.01030  0.86700  0.01870  Biso   1.000  C
  C321     1.0000 0.03900  0.83500  0.00400  Biso   1.000  C
  H230     1.0000 0.05160  0.77950  0.01420  Biso   1.000  H
  C322     1.0000 0.05000  0.88700  0.97100  Biso   1.000  C
  H231     1.0000 0.06520  0.86130  0.95250  Biso   1.000  H
  C323     1.0000 0.03900  0.97800  0.96600  Biso   1.000  C
  H232     1.0000 0.05360  0.02040  0.95360  Biso   1.000  H
  C324     1.0000 0.00700  0.01000  0.98000  Biso   1.000  C
  C325     1.0000 0.02000  0.83800  0.11090  Biso   1.000  C
  O9       1.0000 0.03100  0.82700  0.15200  Biso   1.000  O
  O10      1.0000 0.04900  0.90000  0.12200  Biso   1.000  O
  C326     1.0000 0.08800  0.91400  0.14000  Biso   1.000  C
  H233     1.0000 0.09430  0.97920  0.13950  Biso   1.000  H
  H234     1.0000 0.09470  0.89220  0.17060  Biso   1.000  H
  H235     1.0000 0.10320  0.88030  0.12290  Biso   1.000  H
  O11      1.0000 0.97100  0.71900  0.04100  Biso   1.000  O
  O12      1.0000 0.01000  0.10400  0.99300  Biso   1.000  O
  C327     1.0000 0.00300  0.20000  0.99200  Biso   1.000  C
  H236     1.0000 0.01820  0.22770  0.01890  Biso   1.000  H
  H237     1.0000 0.01090  0.22640  0.96640  Biso   1.000  H
  H238     1.0000 0.97640  0.21240  0.98970  Biso   1.000  H
  C328     1.0000 0.01950  0.84000  0.16200  Biso   1.000  C
  H239     1.0000 0.01680  0.82110  0.19180  Biso   1.000  H
  H240     1.0000 0.99710  0.87700  0.14840  Biso   1.000  H
  C329     1.0000 0.05600  0.89800  0.16640  Biso   1.000  C
  H241     1.0000 0.05640  0.92840  0.13820  Biso   1.000  H
  H242     1.0000 0.05800  0.94490  0.18950  Biso   1.000  H
  C330     1.0000 0.08830  0.83000  0.17900  Biso   1.000  C
  H243     1.0000 0.11000  0.85710  0.19950  Biso   1.000  H
  H244     1.0000 0.09680  0.81040  0.15190  Biso   1.000  H
  C331     1.0000 0.07300  0.74800  0.19950  Biso   1.000  C
  H245     1.0000 0.06070  0.77010  0.22250  Biso   1.000  H
  H246     1.0000 0.09480  0.70930  0.21410  Biso   1.000  H
  C332     1.0000 0.04500  0.68700  0.16800  Biso   1.000  C
  H247     1.0000 0.02780  0.65470  0.18300  Biso   1.000  H
  H248     1.0000 0.05820  0.64180  0.15300  Biso   1.000  H
  C333     1.0000 0.02300  0.75600  0.13400  Biso   1.000  C
  H249     1.0000 0.03670  0.77070  0.11080  Biso   1.000  H
  H250     1.0000 0.99740  0.73210  0.11940  Biso   1.000  H
  C334     1.0000 0.85400  0.48400  0.85920  Biso   1.000  C
  H251     1.0000 0.85050  0.42510  0.84250  Biso   1.000  H
  C335     1.0000 0.87050  0.55600  0.83130  Biso   1.000  C
  H252     1.0000 0.85910  0.54460  0.79950  Biso   1.000  H
  C336     1.0000 0.91240  0.53500  0.83970  Biso   1.000  C
  H253     1.0000 0.91580  0.47070  0.83210  Biso   1.000  H
  H254     1.0000 0.92400  0.57380  0.82040  Biso   1.000  H
  C337     1.0000 0.93190  0.55100  0.88640  Biso   1.000  C
  H255     1.0000 0.93200  0.61740  0.89290  Biso   1.000  H
  H256     1.0000 0.95850  0.53070  0.89140  Biso   1.000  H
  C338     1.0000 0.91190  0.49990  0.91650  Biso   1.000  C
  C339     1.0000 0.87550  0.46560  0.90290  Biso   1.000  C
  C340     1.0000 0.86070  0.40970  0.93080  Biso   1.000  C
  H257     1.0000 0.83580  0.38620  0.92150  Biso   1.000  H
  C341     1.0000 0.88240  0.38810  0.97220  Biso   1.000  C
  H258     1.0000 0.87230  0.34980  0.99130  Biso   1.000  H
  C342     1.0000 0.91880  0.42200  0.98580  Biso   1.000  C
  H259     1.0000 0.93360  0.40760  0.01410  Biso   1.000  H
  C343     1.0000 0.93360  0.47800  0.95790  Biso   1.000  C
  C344     1.0000 0.81460  0.51800  0.86310  Biso   1.000  C
  O13      1.0000 0.80430  0.55500  0.88410  Biso   1.000  O
  O14      1.0000 0.79310  0.48100  0.82650  Biso   1.000  O
  C345     1.0000 0.75100  0.49900  0.81500  Biso   1.000  C
  H260     1.0000 0.73930  0.46780  0.78800  Biso   1.000  H
  H261     1.0000 0.74000  0.47650  0.83930  Biso   1.000  H
  H262     1.0000 0.74640  0.56480  0.81180  Biso   1.000  H
  O15      1.0000 0.86140  0.64000  0.84100  Biso   1.000  O
  H263     1.0000 0.84820  0.63810  0.85950  Biso   1.000  H
  O16      1.0000 0.96930  0.52300  0.97000  Biso   1.000  O
  C346     1.0000 0.00810  0.49600  0.98400  Biso   1.000  C
  H264     1.0000 0.02410  0.55070  0.98930  Biso   1.000  H
  H265     1.0000 0.01150  0.46160  0.01180  Biso   1.000  H
  H266     1.0000 0.01510  0.45820  0.96170  Biso   1.000  H
  C347     1.0000 0.86590  0.55200  0.88090  Biso   1.000  C
  H267     1.0000 0.87100  0.50300  0.86060  Biso   1.000  H
  C348     1.0000 0.87560  0.64700  0.86240  Biso   1.000  C
  H268     1.0000 0.90250  0.64430  0.86000  Biso   1.000  H
  C349     1.0000 0.87390  0.71400  0.89830  Biso   1.000  C
  H269     1.0000 0.88160  0.77400  0.88890  Biso   1.000  H
  H270     1.0000 0.84710  0.71910  0.89990  Biso   1.000  H
  C350     1.0000 0.89620  0.69700  0.94340  Biso   1.000  C
  H271     1.0000 0.88240  0.72200  0.96480  Biso   1.000  H
  H272     1.0000 0.92060  0.73010  0.94770  Biso   1.000  H
  C351     1.0000 0.90380  0.59700  0.95250  Biso   1.000  C
  C352     1.0000 0.88580  0.52860  0.92470  Biso   1.000  C
  C353     1.0000 0.88790  0.43870  0.93910  Biso   1.000  C
  H273     1.0000 0.87550  0.39190  0.92010  Biso   1.000  H
  C354     1.0000 0.90790  0.41730  0.98140  Biso   1.000  C
  H274     1.0000 0.90940  0.35590  0.99120  Biso   1.000  H
  C355     1.0000 0.92600  0.48600  0.00920  Biso   1.000  C
  H275     1.0000 0.93970  0.47120  0.03800  Biso   1.000  H
  C356     1.0000 0.92390  0.57600  0.99470  Biso   1.000  C
  C357     1.0000 0.82320  0.55200  0.87910  Biso   1.000  C
  O17      1.0000 0.80690  0.57600  0.89790  Biso   1.000  O
  O18      1.0000 0.80840  0.50100  0.84330  Biso   1.000  O
  C358     1.0000 0.76580  0.50500  0.82600  Biso   1.000  C
  H276     1.0000 0.75840  0.46550  0.80050  Biso   1.000  H
  H277     1.0000 0.75350  0.48400  0.84930  Biso   1.000  H
  H278     1.0000 0.75810  0.56780  0.81820  Biso   1.000  H
  O19      1.0000 0.85470  0.66000  0.82190  Biso   1.000  O
  H279     1.0000 0.84050  0.70520  0.82180  Biso   1.000  H
  O20      1.0000 0.94100  0.65300  0.01980  Biso   1.000  O
  C359     1.0000 0.96200  0.72800  0.00700  Biso   1.000  C
  H280     1.0000 0.96980  0.76980  0.03210  Biso   1.000  H
  H281     1.0000 0.98460  0.70390  0.99880  Biso   1.000  H
  H282     1.0000 0.94640  0.76040  0.98230  Biso   1.000  H
  C360     1.0000 0.00000  0.82400  0.93940  Biso   1.000  C
  C361     1.0000 0.04400  0.80700  0.95200  Biso   1.000  C
  H283     1.0000 0.05440  0.80520  0.92540  Biso   1.000  H
  C362     1.0000 0.06480  0.87300  0.98400  Biso   1.000  C
  H284     1.0000 0.09060  0.88110  0.97950  Biso   1.000  H
  H285     1.0000 0.06690  0.85020  0.01450  Biso   1.000  H
  C363     1.0000 0.04400  0.96500  0.97900  Biso   1.000  C
  H286     1.0000 0.05960  0.01230  0.99760  Biso   1.000  H
  H287     1.0000 0.03890  0.98570  0.94790  Biso   1.000  H
  C364     1.0000 0.00800  0.94700  0.99400  Biso   1.000  C
  C365     1.0000 0.98970  0.86700  0.98130  Biso   1.000  C
  C366     1.0000 0.96100  0.83500  0.99600  Biso   1.000  C
  H288     1.0000 0.94840  0.77950  0.98580  Biso   1.000  H
  C367     1.0000 0.95000  0.88700  0.02900  Biso   1.000  C
  H289     1.0000 0.93480  0.86130  0.04750  Biso   1.000  H
  C368     1.0000 0.96100  0.97800  0.03400  Biso   1.000  C
  H290     1.0000 0.94640  0.02040  0.04640  Biso   1.000  H
  C369     1.0000 0.99300  0.01000  0.02000  Biso   1.000  C
  C370     1.0000 0.98000  0.83800  0.88910  Biso   1.000  C
  O21      1.0000 0.96900  0.82700  0.84800  Biso   1.000  O
  O22      1.0000 0.95100  0.90000  0.87800  Biso   1.000  O
  C371     1.0000 0.91200  0.91400  0.86000  Biso   1.000  C
  H291     1.0000 0.90570  0.97920  0.86050  Biso   1.000  H
  H292     1.0000 0.90530  0.89220  0.82940  Biso   1.000  H
  H293     1.0000 0.89680  0.88030  0.87710  Biso   1.000  H
  O23      1.0000 0.02900  0.71900  0.95900  Biso   1.000  O
  O24      1.0000 0.99000  0.10400  0.00700  Biso   1.000  O
  C372     1.0000 0.99700  0.20000  0.00800  Biso   1.000  C
  H294     1.0000 0.98180  0.22770  0.98110  Biso   1.000  H
  H295     1.0000 0.98910  0.22640  0.03360  Biso   1.000  H
  H296     1.0000 0.02360  0.21240  0.01030  Biso   1.000  H
  C373     1.0000 0.98050  0.84000  0.83800  Biso   1.000  C
  H297     1.0000 0.98320  0.82110  0.80820  Biso   1.000  H
  H298     1.0000 0.00290  0.87700  0.85160  Biso   1.000  H
  C374     1.0000 0.94400  0.89800  0.83360  Biso   1.000  C
  H299     1.0000 0.94360  0.92840  0.86180  Biso   1.000  H
  H300     1.0000 0.94200  0.94490  0.81050  Biso   1.000  H
  C375     1.0000 0.91170  0.83000  0.82100  Biso   1.000  C
  H301     1.0000 0.89000  0.85710  0.80050  Biso   1.000  H
  H302     1.0000 0.90320  0.81040  0.84810  Biso   1.000  H
  C376     1.0000 0.92700  0.74800  0.80050  Biso   1.000  C
  H303     1.0000 0.93930  0.77010  0.77750  Biso   1.000  H
  H304     1.0000 0.90520  0.70930  0.78590  Biso   1.000  H
  C377     1.0000 0.95500  0.68700  0.83200  Biso   1.000  C
  H305     1.0000 0.97220  0.65470  0.81700  Biso   1.000  H
  H306     1.0000 0.94180  0.64180  0.84700  Biso   1.000  H
  C378     1.0000 0.97700  0.75600  0.86600  Biso   1.000  C
  H307     1.0000 0.96330  0.77070  0.88920  Biso   1.000  H
  H308     1.0000 0.00260  0.73210  0.88060  Biso   1.000  H
  C379     1.0000 0.64600  0.98400  0.14080  Biso   1.000  C
  H309     1.0000 0.64950  0.92510  0.15750  Biso   1.000  H
  C380     1.0000 0.62950  0.05600  0.16870  Biso   1.000  C
  H310     1.0000 0.64090  0.04460  0.20050  Biso   1.000  H
  C381     1.0000 0.58760  0.03500  0.16030  Biso   1.000  C
  H311     1.0000 0.58420  0.97070  0.16790  Biso   1.000  H
  H312     1.0000 0.57600  0.07380  0.17960  Biso   1.000  H
  C382     1.0000 0.56810  0.05100  0.11360  Biso   1.000  C
  H313     1.0000 0.56800  0.11740  0.10710  Biso   1.000  H
  H314     1.0000 0.54150  0.03070  0.10860  Biso   1.000  H
  C383     1.0000 0.58810  0.99990  0.08350  Biso   1.000  C
  C384     1.0000 0.62450  0.96560  0.09710  Biso   1.000  C
  C385     1.0000 0.63930  0.90970  0.06920  Biso   1.000  C
  H315     1.0000 0.66420  0.88620  0.07850  Biso   1.000  H
  C386     1.0000 0.61760  0.88810  0.02780  Biso   1.000  C
  H316     1.0000 0.62770  0.84980  0.00870  Biso   1.000  H
  C387     1.0000 0.58120  0.92200  0.01420  Biso   1.000  C
  H317     1.0000 0.56640  0.90760  0.98590  Biso   1.000  H
  C388     1.0000 0.56640  0.97800  0.04210  Biso   1.000  C
  C389     1.0000 0.68540  0.01800  0.13690  Biso   1.000  C
  O25      1.0000 0.69570  0.05500  0.11590  Biso   1.000  O
  O26      1.0000 0.70690  0.98100  0.17350  Biso   1.000  O
  C390     1.0000 0.74900  0.99900  0.18500  Biso   1.000  C
  H318     1.0000 0.76070  0.96780  0.21200  Biso   1.000  H
  H319     1.0000 0.76000  0.97650  0.16070  Biso   1.000  H
  H320     1.0000 0.75360  0.06480  0.18820  Biso   1.000  H
  O27      1.0000 0.63860  0.14000  0.15900  Biso   1.000  O
  H321     1.0000 0.65180  0.13810  0.14050  Biso   1.000  H
  O28      1.0000 0.53070  0.02300  0.03000  Biso   1.000  O
  C391     1.0000 0.49190  0.99600  0.01600  Biso   1.000  C
  H322     1.0000 0.47590  0.05070  0.01070  Biso   1.000  H
  H323     1.0000 0.48850  0.96160  0.98820  Biso   1.000  H
  H324     1.0000 0.48490  0.95820  0.03830  Biso   1.000  H
  C392     1.0000 0.63410  0.05200  0.11910  Biso   1.000  C
  H325     1.0000 0.62900  0.00300  0.13940  Biso   1.000  H
  C393     1.0000 0.62440  0.14700  0.13760  Biso   1.000  C
  H326     1.0000 0.59750  0.14430  0.14000  Biso   1.000  H
  C394     1.0000 0.62610  0.21400  0.10170  Biso   1.000  C
  H327     1.0000 0.61840  0.27400  0.11110  Biso   1.000  H
  H328     1.0000 0.65290  0.21910  0.10010  Biso   1.000  H
  C395     1.0000 0.60380  0.19700  0.05660  Biso   1.000  C
  H329     1.0000 0.61760  0.22200  0.03520  Biso   1.000  H
  H330     1.0000 0.57940  0.23010  0.05230  Biso   1.000  H
  C396     1.0000 0.59620  0.09700  0.04750  Biso   1.000  C
  C397     1.0000 0.61420  0.02860  0.07530  Biso   1.000  C
  C398     1.0000 0.61210  0.93870  0.06090  Biso   1.000  C
  H331     1.0000 0.62450  0.89190  0.07990  Biso   1.000  H
  C399     1.0000 0.59210  0.91730  0.01860  Biso   1.000  C
  H332     1.0000 0.59060  0.85590  0.00880  Biso   1.000  H
  C400     1.0000 0.57400  0.98600  0.99080  Biso   1.000  C
  H333     1.0000 0.56030  0.97120  0.96200  Biso   1.000  H
  C401     1.0000 0.57610  0.07600  0.00530  Biso   1.000  C
  C402     1.0000 0.67680  0.05200  0.12090  Biso   1.000  C
  O29      1.0000 0.69310  0.07600  0.10210  Biso   1.000  O
  O30      1.0000 0.69160  0.00100  0.15670  Biso   1.000  O
  C403     1.0000 0.73420  0.00500  0.17400  Biso   1.000  C
  H334     1.0000 0.74160  0.96550  0.19950  Biso   1.000  H
  H335     1.0000 0.74650  0.98400  0.15070  Biso   1.000  H
  H336     1.0000 0.74190  0.06780  0.18180  Biso   1.000  H
  O31      1.0000 0.64530  0.16000  0.17810  Biso   1.000  O
  H337     1.0000 0.65950  0.20520  0.17820  Biso   1.000  H
  O32      1.0000 0.55900  0.15300  0.98020  Biso   1.000  O
  C404     1.0000 0.53800  0.22800  0.99300  Biso   1.000  C
  H338     1.0000 0.53020  0.26980  0.96790  Biso   1.000  H
  H339     1.0000 0.51540  0.20390  0.00120  Biso   1.000  H
  H340     1.0000 0.55360  0.26040  0.01770  Biso   1.000  H
  C405     1.0000 0.50000  0.32400  0.06060  Biso   1.000  C
  C406     1.0000 0.45600  0.30700  0.04800  Biso   1.000  C
  H341     1.0000 0.44560  0.30520  0.07460  Biso   1.000  H
  C407     1.0000 0.43520  0.37300  0.01600  Biso   1.000  C
  H342     1.0000 0.40940  0.38110  0.02050  Biso   1.000  H
  H343     1.0000 0.43310  0.35020  0.98550  Biso   1.000  H
  C408     1.0000 0.45600  0.46500  0.02100  Biso   1.000  C
  H344     1.0000 0.44040  0.51230  0.00240  Biso   1.000  H
  H345     1.0000 0.46110  0.48570  0.05210  Biso   1.000  H
  C409     1.0000 0.49200  0.44700  0.00600  Biso   1.000  C
  C410     1.0000 0.51030  0.36700  0.01870  Biso   1.000  C
  C411     1.0000 0.53900  0.33500  0.00400  Biso   1.000  C
  H346     1.0000 0.55160  0.27950  0.01420  Biso   1.000  H
  C412     1.0000 0.55000  0.38700  0.97100  Biso   1.000  C
  H347     1.0000 0.56520  0.36130  0.95250  Biso   1.000  H
  C413     1.0000 0.53900  0.47800  0.96600  Biso   1.000  C
  H348     1.0000 0.55360  0.52040  0.95360  Biso   1.000  H
  C414     1.0000 0.50700  0.51000  0.98000  Biso   1.000  C
  C415     1.0000 0.52000  0.33800  0.11090  Biso   1.000  C
  O33      1.0000 0.53100  0.32700  0.15200  Biso   1.000  O
  O34      1.0000 0.54900  0.40000  0.12200  Biso   1.000  O
  C416     1.0000 0.58800  0.41400  0.14000  Biso   1.000  C
  H349     1.0000 0.59430  0.47920  0.13950  Biso   1.000  H
  H350     1.0000 0.59470  0.39220  0.17060  Biso   1.000  H
  H351     1.0000 0.60320  0.38030  0.12290  Biso   1.000  H
  O35      1.0000 0.47100  0.21900  0.04100  Biso   1.000  O
  O36      1.0000 0.51000  0.60400  0.99300  Biso   1.000  O
  C417     1.0000 0.50300  0.70000  0.99200  Biso   1.000  C
  H352     1.0000 0.51820  0.72770  0.01890  Biso   1.000  H
  H353     1.0000 0.51090  0.72640  0.96640  Biso   1.000  H
  H354     1.0000 0.47640  0.71240  0.98970  Biso   1.000  H
  C418     1.0000 0.51950  0.34000  0.16200  Biso   1.000  C
  H355     1.0000 0.51680  0.32110  0.19180  Biso   1.000  H
  H356     1.0000 0.49710  0.37700  0.14840  Biso   1.000  H
  C419     1.0000 0.55600  0.39800  0.16640  Biso   1.000  C
  H357     1.0000 0.55640  0.42840  0.13820  Biso   1.000  H
  H358     1.0000 0.55800  0.44490  0.18950  Biso   1.000  H
  C420     1.0000 0.58830  0.33000  0.17900  Biso   1.000  C
  H359     1.0000 0.61000  0.35710  0.19950  Biso   1.000  H
  H360     1.0000 0.59680  0.31040  0.15190  Biso   1.000  H
  C421     1.0000 0.57300  0.24800  0.19950  Biso   1.000  C
  H361     1.0000 0.56070  0.27010  0.22250  Biso   1.000  H
  H362     1.0000 0.59480  0.20930  0.21410  Biso   1.000  H
  C422     1.0000 0.54500  0.18700  0.16800  Biso   1.000  C
  H363     1.0000 0.52780  0.15470  0.18300  Biso   1.000  H
  H364     1.0000 0.55820  0.14180  0.15300  Biso   1.000  H
  C423     1.0000 0.52300  0.25600  0.13400  Biso   1.000  C
  H365     1.0000 0.53670  0.27070  0.11080  Biso   1.000  H
  H366     1.0000 0.49740  0.23210  0.11940  Biso   1.000  H
  C424     1.0000 0.35400  0.98400  0.85920  Biso   1.000  C
  H367     1.0000 0.35050  0.92510  0.84250  Biso   1.000  H
  C425     1.0000 0.37050  0.05600  0.83130  Biso   1.000  C
  H368     1.0000 0.35910  0.04460  0.79950  Biso   1.000  H
  C426     1.0000 0.41240  0.03500  0.83970  Biso   1.000  C
  H369     1.0000 0.41580  0.97070  0.83210  Biso   1.000  H
  H370     1.0000 0.42400  0.07380  0.82040  Biso   1.000  H
  C427     1.0000 0.43190  0.05100  0.88640  Biso   1.000  C
  H371     1.0000 0.43200  0.11740  0.89290  Biso   1.000  H
  H372     1.0000 0.45850  0.03070  0.89140  Biso   1.000  H
  C428     1.0000 0.41190  0.99990  0.91650  Biso   1.000  C
  C429     1.0000 0.37550  0.96560  0.90290  Biso   1.000  C
  C430     1.0000 0.36070  0.90970  0.93080  Biso   1.000  C
  H373     1.0000 0.33580  0.88620  0.92150  Biso   1.000  H
  C431     1.0000 0.38240  0.88810  0.97220  Biso   1.000  C
  H374     1.0000 0.37230  0.84980  0.99130  Biso   1.000  H
  C432     1.0000 0.41880  0.92200  0.98580  Biso   1.000  C
  H375     1.0000 0.43360  0.90760  0.01410  Biso   1.000  H
  C433     1.0000 0.43360  0.97800  0.95790  Biso   1.000  C
  C434     1.0000 0.31460  0.01800  0.86310  Biso   1.000  C
  O37      1.0000 0.30430  0.05500  0.88410  Biso   1.000  O
  O38      1.0000 0.29310  0.98100  0.82650  Biso   1.000  O
  C435     1.0000 0.25100  0.99900  0.81500  Biso   1.000  C
  H376     1.0000 0.23930  0.96780  0.78800  Biso   1.000  H
  H377     1.0000 0.24000  0.97650  0.83930  Biso   1.000  H
  H378     1.0000 0.24640  0.06480  0.81180  Biso   1.000  H
  O39      1.0000 0.36140  0.14000  0.84100  Biso   1.000  O
  H379     1.0000 0.34820  0.13810  0.85950  Biso   1.000  H
  O40      1.0000 0.46930  0.02300  0.97000  Biso   1.000  O
  C436     1.0000 0.50810  0.99600  0.98400  Biso   1.000  C
  H380     1.0000 0.52410  0.05070  0.98930  Biso   1.000  H
  H381     1.0000 0.51150  0.96160  0.01180  Biso   1.000  H
  H382     1.0000 0.51510  0.95820  0.96170  Biso   1.000  H
  C437     1.0000 0.36590  0.05200  0.88090  Biso   1.000  C
  H383     1.0000 0.37100  0.00300  0.86060  Biso   1.000  H
  C438     1.0000 0.37560  0.14700  0.86240  Biso   1.000  C
  H384     1.0000 0.40250  0.14430  0.86000  Biso   1.000  H
  C439     1.0000 0.37390  0.21400  0.89830  Biso   1.000  C
  H385     1.0000 0.38160  0.27400  0.88890  Biso   1.000  H
  H386     1.0000 0.34710  0.21910  0.89990  Biso   1.000  H
  C440     1.0000 0.39620  0.19700  0.94340  Biso   1.000  C
  H387     1.0000 0.38240  0.22200  0.96480  Biso   1.000  H
  H388     1.0000 0.42060  0.23010  0.94770  Biso   1.000  H
  C441     1.0000 0.40380  0.09700  0.95250  Biso   1.000  C
  C442     1.0000 0.38580  0.02860  0.92470  Biso   1.000  C
  C443     1.0000 0.38790  0.93870  0.93910  Biso   1.000  C
  H389     1.0000 0.37550  0.89190  0.92010  Biso   1.000  H
  C444     1.0000 0.40790  0.91730  0.98140  Biso   1.000  C
  H390     1.0000 0.40940  0.85590  0.99120  Biso   1.000  H
  C445     1.0000 0.42600  0.98600  0.00920  Biso   1.000  C
  H391     1.0000 0.43970  0.97120  0.03800  Biso   1.000  H
  C446     1.0000 0.42390  0.07600  0.99470  Biso   1.000  C
  C447     1.0000 0.32320  0.05200  0.87910  Biso   1.000  C
  O41      1.0000 0.30690  0.07600  0.89790  Biso   1.000  O
  O42      1.0000 0.30840  0.00100  0.84330  Biso   1.000  O
  C448     1.0000 0.26580  0.00500  0.82600  Biso   1.000  C
  H392     1.0000 0.25840  0.96550  0.80050  Biso   1.000  H
  H393     1.0000 0.25350  0.98400  0.84930  Biso   1.000  H
  H394     1.0000 0.25810  0.06780  0.81820  Biso   1.000  H
  O43      1.0000 0.35470  0.16000  0.82190  Biso   1.000  O
  H395     1.0000 0.34050  0.20520  0.82180  Biso   1.000  H
  O44      1.0000 0.44100  0.15300  0.01980  Biso   1.000  O
  C449     1.0000 0.46200  0.22800  0.00700  Biso   1.000  C
  H396     1.0000 0.46980  0.26980  0.03210  Biso   1.000  H
  H397     1.0000 0.48460  0.20390  0.99880  Biso   1.000  H
  H398     1.0000 0.44640  0.26040  0.98230  Biso   1.000  H
  C450     1.0000 0.50000  0.32400  0.93940  Biso   1.000  C
  C451     1.0000 0.54400  0.30700  0.95200  Biso   1.000  C
  H399     1.0000 0.55440  0.30520  0.92540  Biso   1.000  H
  C452     1.0000 0.56480  0.37300  0.98400  Biso   1.000  C
  H400     1.0000 0.59060  0.38110  0.97950  Biso   1.000  H
  H401     1.0000 0.56690  0.35020  0.01450  Biso   1.000  H
  C453     1.0000 0.54400  0.46500  0.97900  Biso   1.000  C
  H402     1.0000 0.55960  0.51230  0.99760  Biso   1.000  H
  H403     1.0000 0.53890  0.48570  0.94790  Biso   1.000  H
  C454     1.0000 0.50800  0.44700  0.99400  Biso   1.000  C
  C455     1.0000 0.48970  0.36700  0.98130  Biso   1.000  C
  C456     1.0000 0.46100  0.33500  0.99600  Biso   1.000  C
  H404     1.0000 0.44840  0.27950  0.98580  Biso   1.000  H
  C457     1.0000 0.45000  0.38700  0.02900  Biso   1.000  C
  H405     1.0000 0.43480  0.36130  0.04750  Biso   1.000  H
  C458     1.0000 0.46100  0.47800  0.03400  Biso   1.000  C
  H406     1.0000 0.44640  0.52040  0.04640  Biso   1.000  H
  C459     1.0000 0.49300  0.51000  0.02000  Biso   1.000  C
  C460     1.0000 0.48000  0.33800  0.88910  Biso   1.000  C
  O45      1.0000 0.46900  0.32700  0.84800  Biso   1.000  O
  O46      1.0000 0.45100  0.40000  0.87800  Biso   1.000  O
  C461     1.0000 0.41200  0.41400  0.86000  Biso   1.000  C
  H407     1.0000 0.40570  0.47920  0.86050  Biso   1.000  H
  H408     1.0000 0.40530  0.39220  0.82940  Biso   1.000  H
  H409     1.0000 0.39680  0.38030  0.87710  Biso   1.000  H
  O47      1.0000 0.52900  0.21900  0.95900  Biso   1.000  O
  O48      1.0000 0.49000  0.60400  0.00700  Biso   1.000  O
  C462     1.0000 0.49700  0.70000  0.00800  Biso   1.000  C
  H410     1.0000 0.48180  0.72770  0.98110  Biso   1.000  H
  H411     1.0000 0.48910  0.72640  0.03360  Biso   1.000  H
  H412     1.0000 0.52360  0.71240  0.01030  Biso   1.000  H
  C463     1.0000 0.48050  0.34000  0.83800  Biso   1.000  C
  H413     1.0000 0.48320  0.32110  0.80820  Biso   1.000  H
  H414     1.0000 0.50290  0.37700  0.85160  Biso   1.000  H
  C464     1.0000 0.44400  0.39800  0.83360  Biso   1.000  C
  H415     1.0000 0.44360  0.42840  0.86180  Biso   1.000  H
  H416     1.0000 0.44200  0.44490  0.81050  Biso   1.000  H
  C465     1.0000 0.41170  0.33000  0.82100  Biso   1.000  C
  H417     1.0000 0.39000  0.35710  0.80050  Biso   1.000  H
  H418     1.0000 0.40320  0.31040  0.84810  Biso   1.000  H
  C466     1.0000 0.42700  0.24800  0.80050  Biso   1.000  C
  H419     1.0000 0.43930  0.27010  0.77750  Biso   1.000  H
  H420     1.0000 0.40520  0.20930  0.78590  Biso   1.000  H
  C467     1.0000 0.45500  0.18700  0.83200  Biso   1.000  C
  H421     1.0000 0.47220  0.15470  0.81700  Biso   1.000  H
  H422     1.0000 0.44180  0.14180  0.84700  Biso   1.000  H
  C468     1.0000 0.47700  0.25600  0.86600  Biso   1.000  C
  H423     1.0000 0.46330  0.27070  0.88920  Biso   1.000  H
  H424     1.0000 0.50260  0.23210  0.88060  Biso   1.000  H
