data_image0
_cell_length_a       34.7707
_cell_length_b       14.8406
_cell_length_c       31.2152
_cell_angle_alpha    90
_cell_angle_beta     102.601
_cell_angle_gamma    90

_symmetry_space_group_name_H-M    "P 1"
_symmetry_int_tables_number       1

loop_
  _symmetry_equiv_pos_as_xyz
  'x, y, z'

loop_
  _atom_site_label
  _atom_site_occupancy
  _atom_site_fract_x
  _atom_site_fract_y
  _atom_site_fract_z
  _atom_site_thermal_displace_type
  _atom_site_B_iso_or_equiv
  _atom_site_type_symbol
  N1       1.0000 0.12390  0.69920  0.88390  Biso   1.000  N
  C1       1.0000 0.15020  0.65760  0.91450  Biso   1.000  C
  H1       1.0000 0.15320  0.59430  0.91220  Biso   1.000  H
  C2       1.0000 0.17350  0.70180  0.94970  Biso   1.000  C
  H2       1.0000 0.19120  0.66880  0.97160  Biso   1.000  H
  C3       1.0000 0.17100  0.79180  0.95270  Biso   1.000  C
  C4       1.0000 0.14510  0.83800  0.91930  Biso   1.000  C
  H3       1.0000 0.14350  0.90190  0.91900  Biso   1.000  H
  C5       1.0000 0.12180  0.78580  0.88630  Biso   1.000  C
  H4       1.0000 0.10320  0.81610  0.86420  Biso   1.000  H
  C6       1.0000 0.19300  0.84600  0.99060  Biso   1.000  C
  N2       1.0000 0.22240  0.80400  0.01890  Biso   1.000  N
  C7       1.0000 0.23940  0.85820  0.05180  Biso   1.000  C
  N3       1.0000 0.23200  0.94450  0.05840  Biso   1.000  N
  C8       1.0000 0.20360  0.97680  0.02640  Biso   1.000  C
  N4       1.0000 0.18280  0.93220  0.99260  Biso   1.000  N
  N5       1.0000 0.32940  0.72990  0.14830  Biso   1.000  N
  C9       1.0000 0.31730  0.81080  0.15470  Biso   1.000  C
  H5       1.0000 0.32810  0.84010  0.18170  Biso   1.000  H
  C10      1.0000 0.28910  0.85640  0.12360  Biso   1.000  C
  H6       1.0000 0.28250  0.91700  0.12870  Biso   1.000  H
  C11      1.0000 0.27140  0.81440  0.08640  Biso   1.000  C
  C12      1.0000 0.28330  0.72530  0.08010  Biso   1.000  C
  H7       1.0000 0.27100  0.69260  0.05460  Biso   1.000  H
  C13      1.0000 0.31280  0.68610  0.11090  Biso   1.000  C
  H8       1.0000 0.32160  0.62730  0.10590  Biso   1.000  H
  N6       1.0000 0.17910  0.25910  0.02410  Biso   1.000  N
  C14      1.0000 0.15250  0.19920  0.00230  Biso   1.000  C
  H9       1.0000 0.12800  0.22110  0.98580  Biso   1.000  H
  C15      1.0000 0.15950  0.10860  0.00300  Biso   1.000  C
  H10      1.0000 0.14050  0.06850  0.98670  Biso   1.000  H
  C16      1.0000 0.19520  0.07550  0.02820  Biso   1.000  C
  C17      1.0000 0.22180  0.13670  0.05110  Biso   1.000  C
  H11      1.0000 0.24660  0.11750  0.06770  Biso   1.000  H
  C18      1.0000 0.21160  0.22520  0.04920  Biso   1.000  C
  H12      1.0000 0.22910  0.26590  0.06720  Biso   1.000  H
  I1       1.0000 0.02325  0.89880  0.38261  Biso   1.000  I
  I2       1.0000 0.11360  0.00430  0.30870  Biso   1.000  I
  I3       1.0000 0.23300  0.01970  0.53724  Biso   1.000  I
  I4       1.0000 0.12410  0.10410  0.44268  Biso   1.000  I
  I5       1.0000 0.12140  0.41140  0.94260  Biso   1.000  I
  Zn1      1.0000 0.16569  0.39465  0.01727  Biso   1.000  Zn
  I6       1.0000 0.22559  0.49600  0.03810  Biso   1.000  I
  N7       1.0000 0.13430  0.41850  0.06440  Biso   1.000  N
  C19      1.0000 0.14860  0.46610  0.10190  Biso   1.000  C
  H13      1.0000 0.17460  0.48970  0.10650  Biso   1.000  H
  C20      1.0000 0.12770  0.48110  0.13260  Biso   1.000  C
  H14      1.0000 0.13950  0.51130  0.15900  Biso   1.000  H
  C21      1.0000 0.08940  0.45300  0.12610  Biso   1.000  C
  C22      1.0000 0.07340  0.40800  0.08850  Biso   1.000  C
  H15      1.0000 0.04680  0.38760  0.08310  Biso   1.000  H
  C23      1.0000 0.09660  0.39100  0.05760  Biso   1.000  C
  H16      1.0000 0.08530  0.35980  0.03130  Biso   1.000  H
  C24      1.0000 0.06540  0.47050  0.15850  Biso   1.000  C
  N8       1.0000 0.07360  0.54210  0.18510  Biso   1.000  N
  C25      1.0000 0.05150  0.54870  0.21480  Biso   1.000  C
  N9       1.0000 0.02370  0.49230  0.22050  Biso   1.000  N
  C26      1.0000 0.01650  0.42600  0.19070  Biso   1.000  C
  N10      1.0000 0.03580  0.41170  0.15910  Biso   1.000  N
  N11      1.0000 0.92050  0.25400  0.19580  Biso   1.000  N
  C27      1.0000 0.93140  0.27020  0.15820  Biso   1.000  C
  H17      1.0000 0.91660  0.24310  0.13220  Biso   1.000  H
  C28      1.0000 0.96270  0.32370  0.15510  Biso   1.000  C
  H18      1.0000 0.97020  0.33120  0.12790  Biso   1.000  H
  C29      1.0000 0.98330  0.36710  0.19290  Biso   1.000  C
  C30      1.0000 0.97140  0.35010  0.23240  Biso   1.000  C
  H19      1.0000 0.98540  0.37630  0.25900  Biso   1.000  H
  C31      1.0000 0.94010  0.29670  0.23250  Biso   1.000  C
  H20      1.0000 0.93150  0.28860  0.25910  Biso   1.000  H
  I7       1.0000 0.85673  0.19304  0.27067  Biso   1.000  I
  Zn2      1.0000 0.87297  0.17090  0.19601  Biso   1.000  Zn
  I8       1.0000 0.89045  0.02307  0.16529  Biso   1.000  I
  N12      1.0000 0.06630  0.78220  0.29770  Biso   1.000  N
  C32      1.0000 0.03670  0.72350  0.29720  Biso   1.000  C
  H21      1.0000 0.01910  0.73360  0.31610  Biso   1.000  H
  C33      1.0000 0.03140  0.65000  0.27060  Biso   1.000  C
  H22      1.0000 0.00980  0.61090  0.27070  Biso   1.000  H
  C34      1.0000 0.05640  0.63150  0.24370  Biso   1.000  C
  C35      1.0000 0.08680  0.69300  0.24340  Biso   1.000  C
  H23      1.0000 0.10450  0.68400  0.22450  Biso   1.000  H
  C36      1.0000 0.09080  0.76650  0.27070  Biso   1.000  C
  H24      1.0000 0.11160  0.80770  0.27040  Biso   1.000  H
  Zn3      1.0000 0.08055  0.88458  0.34414  Biso   1.000  Zn
  N13      1.0000 0.12070  0.81420  0.39100  Biso   1.000  N
  C37      1.0000 0.11290  0.73170  0.39960  Biso   1.000  C
  H25      1.0000 0.09070  0.70420  0.38100  Biso   1.000  H
  C38      1.0000 0.13420  0.68070  0.43350  Biso   1.000  C
  H26      1.0000 0.12740  0.61970  0.43740  Biso   1.000  H
  C39      1.0000 0.16500  0.72000  0.46110  Biso   1.000  C
  C40      1.0000 0.17360  0.81050  0.45380  Biso   1.000  C
  H27      1.0000 0.19480  0.84040  0.47270  Biso   1.000  H
  C41      1.0000 0.15110  0.85430  0.41940  Biso   1.000  C
  H28      1.0000 0.15670  0.91580  0.41480  Biso   1.000  H
  C42      1.0000 0.18910  0.66900  0.49790  Biso   1.000  C
  N14      1.0000 0.17970  0.58190  0.50200  Biso   1.000  N
  C43      1.0000 0.20310  0.53580  0.53330  Biso   1.000  C
  N15      1.0000 0.23300  0.57230  0.56390  Biso   1.000  N
  C44      1.0000 0.24000  0.65890  0.55740  Biso   1.000  C
  N16      1.0000 0.21930  0.70920  0.52540  Biso   1.000  N
  N17      1.0000 0.18270  0.25210  0.52850  Biso   1.000  N
  C45      1.0000 0.21620  0.28600  0.55220  Biso   1.000  C
  H29      1.0000 0.23590  0.24500  0.56620  Biso   1.000  H
  C46      1.0000 0.22380  0.37600  0.55740  Biso   1.000  C
  H30      1.0000 0.24720  0.39730  0.57640  Biso   1.000  H
  C47      1.0000 0.19510  0.43750  0.53330  Biso   1.000  C
  C48      1.0000 0.16110  0.40310  0.50940  Biso   1.000  C
  H31      1.0000 0.14080  0.44200  0.49460  Biso   1.000  H
  C49      1.0000 0.15630  0.31070  0.50690  Biso   1.000  C
  H32      1.0000 0.13280  0.28750  0.48880  Biso   1.000  H
  N18      1.0000 0.33260  0.79190  0.64540  Biso   1.000  N
  C50      1.0000 0.31450  0.82900  0.60770  Biso   1.000  C
  H33      1.0000 0.32290  0.88690  0.60060  Biso   1.000  H
  C51      1.0000 0.28420  0.78810  0.57840  Biso   1.000  C
  H34      1.0000 0.27210  0.81730  0.55180  Biso   1.000  H
  C52      1.0000 0.27190  0.70410  0.58840  Biso   1.000  C
  C53      1.0000 0.29060  0.66280  0.62780  Biso   1.000  C
  H35      1.0000 0.28290  0.60470  0.63540  Biso   1.000  H
  C54      1.0000 0.32100  0.70940  0.65540  Biso   1.000  C
  H36      1.0000 0.33400  0.68210  0.68210  Biso   1.000  H
  I9       1.0000 0.11257  0.50836  0.80528  Biso   1.000  I
  Zn4      1.0000 0.08050  0.62964  0.84012  Biso   1.000  Zn
  I10      1.0000 0.02539  0.61744  0.88108  Biso   1.000  I
  N19      1.0000 0.06480  0.72950  0.79210  Biso   1.000  N
  C55      1.0000 0.03810  0.79220  0.79650  Biso   1.000  C
  H37      1.0000 0.02250  0.78370  0.81770  Biso   1.000  H
  C56      1.0000 0.03280  0.86990  0.77050  Biso   1.000  C
  H38      1.0000 0.01430  0.91430  0.77460  Biso   1.000  H
  C57      1.0000 0.05450  0.88170  0.73900  Biso   1.000  C
  C58      1.0000 0.08050  0.81240  0.73300  Biso   1.000  C
  H39      1.0000 0.09450  0.81540  0.71020  Biso   1.000  H
  C59      1.0000 0.08490  0.74010  0.76140  Biso   1.000  C
  H40      1.0000 0.10360  0.69510  0.75850  Biso   1.000  H
  C60      1.0000 0.05090  0.96500  0.71250  Biso   1.000  C
  N20      1.0000 0.02390  0.02440  0.71730  Biso   1.000  N
  C61      1.0000 0.01860  0.09160  0.68860  Biso   1.000  C
  N21      1.0000 0.03950  0.10490  0.65850  Biso   1.000  N
  C62      1.0000 0.06730  0.04520  0.65840  Biso   1.000  C
  N22      1.0000 0.07400  0.97230  0.68350  Biso   1.000  N
  N23      1.0000 0.13890  0.08940  0.56530  Biso   1.000  N
  C63      1.0000 0.14650  0.02380  0.59470  Biso   1.000  C
  H41      1.0000 0.16840  0.98570  0.59450  Biso   1.000  H
  C64      1.0000 0.12490  0.00790  0.62490  Biso   1.000  C
  H42      1.0000 0.13260  0.96170  0.64600  Biso   1.000  H
  C65      1.0000 0.09210  0.05770  0.62520  Biso   1.000  C
  C66      1.0000 0.08330  0.12600  0.59330  Biso   1.000  C
  H43      1.0000 0.06000  0.16120  0.59010  Biso   1.000  H
  C67      1.0000 0.10890  0.14000  0.56760  Biso   1.000  C
  H44      1.0000 0.10470  0.19130  0.54920  Biso   1.000  H
  Zn5      1.0000 0.17109  0.11504  0.51827  Biso   1.000  Zn
  N24      1.0000 0.92360  0.26940  0.69100  Biso   1.000  N
  C68      1.0000 0.93730  0.26100  0.65560  Biso   1.000  C
  H45      1.0000 0.92540  0.29470  0.63020  Biso   1.000  H
  C69      1.0000 0.96860  0.20430  0.65370  Biso   1.000  C
  H46      1.0000 0.97780  0.19850  0.62740  Biso   1.000  H
  C70      1.0000 0.98580  0.15770  0.68980  Biso   1.000  C
  C71      1.0000 0.97080  0.16270  0.72710  Biso   1.000  C
  H47      1.0000 0.98060  0.12660  0.75220  Biso   1.000  H
  C72      1.0000 0.94040  0.22380  0.72570  Biso   1.000  C
  H48      1.0000 0.93120  0.23300  0.75180  Biso   1.000  H
  I11      1.0000 0.85919  0.34920  0.76400  Biso   1.000  I
  Zn6      1.0000 0.87666  0.35653  0.68993  Biso   1.000  Zn
  I12      1.0000 0.89173  0.50092  0.65426  Biso   1.000  I
  I13      1.0000 0.11640  0.41170  0.94260  Biso   1.000  I
  I14      1.0000 0.22850  0.48800  0.04090  Biso   1.000  I
  I15      1.0000 0.02560  0.90600  0.37170  Biso   1.000  I
  I16      1.0000 0.12430  0.99600  0.30840  Biso   1.000  I
  I17      1.0000 0.23570  0.03400  0.54370  Biso   1.000  I
  I18      1.0000 0.13050  0.10010  0.44380  Biso   1.000  I
  N25      1.0000 0.62390  0.19920  0.88390  Biso   1.000  N
  C73      1.0000 0.65020  0.15760  0.91450  Biso   1.000  C
  H49      1.0000 0.65320  0.09430  0.91220  Biso   1.000  H
  C74      1.0000 0.67350  0.20180  0.94970  Biso   1.000  C
  H50      1.0000 0.69120  0.16880  0.97160  Biso   1.000  H
  C75      1.0000 0.67100  0.29180  0.95270  Biso   1.000  C
  C76      1.0000 0.64510  0.33800  0.91930  Biso   1.000  C
  H51      1.0000 0.64350  0.40190  0.91900  Biso   1.000  H
  C77      1.0000 0.62180  0.28580  0.88630  Biso   1.000  C
  H52      1.0000 0.60320  0.31610  0.86420  Biso   1.000  H
  C78      1.0000 0.69300  0.34600  0.99060  Biso   1.000  C
  N26      1.0000 0.72240  0.30400  0.01890  Biso   1.000  N
  C79      1.0000 0.73940  0.35820  0.05180  Biso   1.000  C
  N27      1.0000 0.73200  0.44450  0.05840  Biso   1.000  N
  C80      1.0000 0.70360  0.47680  0.02640  Biso   1.000  C
  N28      1.0000 0.68280  0.43220  0.99260  Biso   1.000  N
  N29      1.0000 0.82940  0.22990  0.14830  Biso   1.000  N
  C81      1.0000 0.81730  0.31080  0.15470  Biso   1.000  C
  H53      1.0000 0.82810  0.34010  0.18170  Biso   1.000  H
  C82      1.0000 0.78910  0.35640  0.12360  Biso   1.000  C
  H54      1.0000 0.78250  0.41700  0.12870  Biso   1.000  H
  C83      1.0000 0.77140  0.31440  0.08640  Biso   1.000  C
  C84      1.0000 0.78330  0.22530  0.08010  Biso   1.000  C
  H55      1.0000 0.77100  0.19260  0.05460  Biso   1.000  H
  C85      1.0000 0.81280  0.18610  0.11090  Biso   1.000  C
  H56      1.0000 0.82160  0.12730  0.10590  Biso   1.000  H
  N30      1.0000 0.67910  0.75910  0.02410  Biso   1.000  N
  C86      1.0000 0.65250  0.69920  0.00230  Biso   1.000  C
  H57      1.0000 0.62800  0.72110  0.98580  Biso   1.000  H
  C87      1.0000 0.65950  0.60860  0.00300  Biso   1.000  C
  H58      1.0000 0.64050  0.56850  0.98670  Biso   1.000  H
  C88      1.0000 0.69520  0.57550  0.02820  Biso   1.000  C
  C89      1.0000 0.72180  0.63670  0.05110  Biso   1.000  C
  H59      1.0000 0.74660  0.61750  0.06770  Biso   1.000  H
  C90      1.0000 0.71160  0.72520  0.04920  Biso   1.000  C
  H60      1.0000 0.72910  0.76590  0.06720  Biso   1.000  H
  I19      1.0000 0.52325  0.39880  0.38261  Biso   1.000  I
  I20      1.0000 0.61360  0.50430  0.30870  Biso   1.000  I
  I21      1.0000 0.73300  0.51970  0.53724  Biso   1.000  I
  I22      1.0000 0.62410  0.60410  0.44268  Biso   1.000  I
  I23      1.0000 0.62140  0.91140  0.94260  Biso   1.000  I
  Zn7      1.0000 0.66569  0.89465  0.01727  Biso   1.000  Zn
  I24      1.0000 0.72559  0.99600  0.03810  Biso   1.000  I
  N31      1.0000 0.63430  0.91850  0.06440  Biso   1.000  N
  C91      1.0000 0.64860  0.96610  0.10190  Biso   1.000  C
  H61      1.0000 0.67460  0.98970  0.10650  Biso   1.000  H
  C92      1.0000 0.62770  0.98110  0.13260  Biso   1.000  C
  H62      1.0000 0.63950  0.01130  0.15900  Biso   1.000  H
  C93      1.0000 0.58940  0.95300  0.12610  Biso   1.000  C
  C94      1.0000 0.57340  0.90800  0.08850  Biso   1.000  C
  H63      1.0000 0.54680  0.88760  0.08310  Biso   1.000  H
  C95      1.0000 0.59660  0.89100  0.05760  Biso   1.000  C
  H64      1.0000 0.58530  0.85980  0.03130  Biso   1.000  H
  C96      1.0000 0.56540  0.97050  0.15850  Biso   1.000  C
  N32      1.0000 0.57360  0.04210  0.18510  Biso   1.000  N
  C97      1.0000 0.55150  0.04870  0.21480  Biso   1.000  C
  N33      1.0000 0.52370  0.99230  0.22050  Biso   1.000  N
  C98      1.0000 0.51650  0.92600  0.19070  Biso   1.000  C
  N34      1.0000 0.53580  0.91170  0.15910  Biso   1.000  N
  N35      1.0000 0.42050  0.75400  0.19580  Biso   1.000  N
  C99      1.0000 0.43140  0.77020  0.15820  Biso   1.000  C
  H65      1.0000 0.41660  0.74310  0.13220  Biso   1.000  H
  C100     1.0000 0.46270  0.82370  0.15510  Biso   1.000  C
  H66      1.0000 0.47020  0.83120  0.12790  Biso   1.000  H
  C101     1.0000 0.48330  0.86710  0.19290  Biso   1.000  C
  C102     1.0000 0.47140  0.85010  0.23240  Biso   1.000  C
  H67      1.0000 0.48540  0.87630  0.25900  Biso   1.000  H
  C103     1.0000 0.44010  0.79670  0.23250  Biso   1.000  C
  H68      1.0000 0.43150  0.78860  0.25910  Biso   1.000  H
  I25      1.0000 0.35673  0.69304  0.27067  Biso   1.000  I
  Zn8      1.0000 0.37297  0.67090  0.19601  Biso   1.000  Zn
  I26      1.0000 0.39045  0.52307  0.16529  Biso   1.000  I
  N36      1.0000 0.56630  0.28220  0.29770  Biso   1.000  N
  C104     1.0000 0.53670  0.22350  0.29720  Biso   1.000  C
  H69      1.0000 0.51910  0.23360  0.31610  Biso   1.000  H
  C105     1.0000 0.53140  0.15000  0.27060  Biso   1.000  C
  H70      1.0000 0.50980  0.11090  0.27070  Biso   1.000  H
  C106     1.0000 0.55640  0.13150  0.24370  Biso   1.000  C
  C107     1.0000 0.58680  0.19300  0.24340  Biso   1.000  C
  H71      1.0000 0.60450  0.18400  0.22450  Biso   1.000  H
  C108     1.0000 0.59080  0.26650  0.27070  Biso   1.000  C
  H72      1.0000 0.61160  0.30770  0.27040  Biso   1.000  H
  Zn9      1.0000 0.58055  0.38458  0.34414  Biso   1.000  Zn
  N37      1.0000 0.62070  0.31420  0.39100  Biso   1.000  N
  C109     1.0000 0.61290  0.23170  0.39960  Biso   1.000  C
  H73      1.0000 0.59070  0.20420  0.38100  Biso   1.000  H
  C110     1.0000 0.63420  0.18070  0.43350  Biso   1.000  C
  H74      1.0000 0.62740  0.11970  0.43740  Biso   1.000  H
  C111     1.0000 0.66500  0.22000  0.46110  Biso   1.000  C
  C112     1.0000 0.67360  0.31050  0.45380  Biso   1.000  C
  H75      1.0000 0.69480  0.34040  0.47270  Biso   1.000  H
  C113     1.0000 0.65110  0.35430  0.41940  Biso   1.000  C
  H76      1.0000 0.65670  0.41580  0.41480  Biso   1.000  H
  C114     1.0000 0.68910  0.16900  0.49790  Biso   1.000  C
  N38      1.0000 0.67970  0.08190  0.50200  Biso   1.000  N
  C115     1.0000 0.70310  0.03580  0.53330  Biso   1.000  C
  N39      1.0000 0.73300  0.07230  0.56390  Biso   1.000  N
  C116     1.0000 0.74000  0.15890  0.55740  Biso   1.000  C
  N40      1.0000 0.71930  0.20920  0.52540  Biso   1.000  N
  N41      1.0000 0.68270  0.75210  0.52850  Biso   1.000  N
  C117     1.0000 0.71620  0.78600  0.55220  Biso   1.000  C
  H77      1.0000 0.73590  0.74500  0.56620  Biso   1.000  H
  C118     1.0000 0.72380  0.87600  0.55740  Biso   1.000  C
  H78      1.0000 0.74720  0.89730  0.57640  Biso   1.000  H
  C119     1.0000 0.69510  0.93750  0.53330  Biso   1.000  C
  C120     1.0000 0.66110  0.90310  0.50940  Biso   1.000  C
  H79      1.0000 0.64080  0.94200  0.49460  Biso   1.000  H
  C121     1.0000 0.65630  0.81070  0.50690  Biso   1.000  C
  H80      1.0000 0.63280  0.78750  0.48880  Biso   1.000  H
  N42      1.0000 0.83260  0.29190  0.64540  Biso   1.000  N
  C122     1.0000 0.81450  0.32900  0.60770  Biso   1.000  C
  H81      1.0000 0.82290  0.38690  0.60060  Biso   1.000  H
  C123     1.0000 0.78420  0.28810  0.57840  Biso   1.000  C
  H82      1.0000 0.77210  0.31730  0.55180  Biso   1.000  H
  C124     1.0000 0.77190  0.20410  0.58840  Biso   1.000  C
  C125     1.0000 0.79060  0.16280  0.62780  Biso   1.000  C
  H83      1.0000 0.78290  0.10470  0.63540  Biso   1.000  H
  C126     1.0000 0.82100  0.20940  0.65540  Biso   1.000  C
  H84      1.0000 0.83400  0.18210  0.68210  Biso   1.000  H
  I27      1.0000 0.61257  0.00836  0.80528  Biso   1.000  I
  Zn10     1.0000 0.58050  0.12964  0.84012  Biso   1.000  Zn
  I28      1.0000 0.52539  0.11744  0.88108  Biso   1.000  I
  N43      1.0000 0.56480  0.22950  0.79210  Biso   1.000  N
  C127     1.0000 0.53810  0.29220  0.79650  Biso   1.000  C
  H85      1.0000 0.52250  0.28370  0.81770  Biso   1.000  H
  C128     1.0000 0.53280  0.36990  0.77050  Biso   1.000  C
  H86      1.0000 0.51430  0.41430  0.77460  Biso   1.000  H
  C129     1.0000 0.55450  0.38170  0.73900  Biso   1.000  C
  C130     1.0000 0.58050  0.31240  0.73300  Biso   1.000  C
  H87      1.0000 0.59450  0.31540  0.71020  Biso   1.000  H
  C131     1.0000 0.58490  0.24010  0.76140  Biso   1.000  C
  H88      1.0000 0.60360  0.19510  0.75850  Biso   1.000  H
  C132     1.0000 0.55090  0.46500  0.71250  Biso   1.000  C
  N44      1.0000 0.52390  0.52440  0.71730  Biso   1.000  N
  C133     1.0000 0.51860  0.59160  0.68860  Biso   1.000  C
  N45      1.0000 0.53950  0.60490  0.65850  Biso   1.000  N
  C134     1.0000 0.56730  0.54520  0.65840  Biso   1.000  C
  N46      1.0000 0.57400  0.47230  0.68350  Biso   1.000  N
  N47      1.0000 0.63890  0.58940  0.56530  Biso   1.000  N
  C135     1.0000 0.64650  0.52380  0.59470  Biso   1.000  C
  H89      1.0000 0.66840  0.48570  0.59450  Biso   1.000  H
  C136     1.0000 0.62490  0.50790  0.62490  Biso   1.000  C
  H90      1.0000 0.63260  0.46170  0.64600  Biso   1.000  H
  C137     1.0000 0.59210  0.55770  0.62520  Biso   1.000  C
  C138     1.0000 0.58330  0.62600  0.59330  Biso   1.000  C
  H91      1.0000 0.56000  0.66120  0.59010  Biso   1.000  H
  C139     1.0000 0.60890  0.64000  0.56760  Biso   1.000  C
  H92      1.0000 0.60470  0.69130  0.54920  Biso   1.000  H
  Zn11     1.0000 0.67109  0.61504  0.51827  Biso   1.000  Zn
  N48      1.0000 0.42360  0.76940  0.69100  Biso   1.000  N
  C140     1.0000 0.43730  0.76100  0.65560  Biso   1.000  C
  H93      1.0000 0.42540  0.79470  0.63020  Biso   1.000  H
  C141     1.0000 0.46860  0.70430  0.65370  Biso   1.000  C
  H94      1.0000 0.47780  0.69850  0.62740  Biso   1.000  H
  C142     1.0000 0.48580  0.65770  0.68980  Biso   1.000  C
  C143     1.0000 0.47080  0.66270  0.72710  Biso   1.000  C
  H95      1.0000 0.48060  0.62660  0.75220  Biso   1.000  H
  C144     1.0000 0.44040  0.72380  0.72570  Biso   1.000  C
  H96      1.0000 0.43120  0.73300  0.75180  Biso   1.000  H
  I29      1.0000 0.35919  0.84920  0.76400  Biso   1.000  I
  Zn12     1.0000 0.37666  0.85653  0.68993  Biso   1.000  Zn
  I30      1.0000 0.39173  0.00092  0.65426  Biso   1.000  I
  I31      1.0000 0.61640  0.91170  0.94260  Biso   1.000  I
  I32      1.0000 0.72850  0.98800  0.04090  Biso   1.000  I
  I33      1.0000 0.52560  0.40600  0.37170  Biso   1.000  I
  I34      1.0000 0.62430  0.49600  0.30840  Biso   1.000  I
  I35      1.0000 0.73570  0.53400  0.54370  Biso   1.000  I
  I36      1.0000 0.63050  0.60010  0.44380  Biso   1.000  I
  N49      1.0000 0.87610  0.69920  0.11610  Biso   1.000  N
  C145     1.0000 0.84980  0.65760  0.08550  Biso   1.000  C
  H97      1.0000 0.84680  0.59430  0.08780  Biso   1.000  H
  C146     1.0000 0.82650  0.70180  0.05030  Biso   1.000  C
  H98      1.0000 0.80880  0.66880  0.02840  Biso   1.000  H
  C147     1.0000 0.82900  0.79180  0.04730  Biso   1.000  C
  C148     1.0000 0.85490  0.83800  0.08070  Biso   1.000  C
  H99      1.0000 0.85650  0.90190  0.08100  Biso   1.000  H
  C149     1.0000 0.87820  0.78580  0.11370  Biso   1.000  C
  H100     1.0000 0.89680  0.81610  0.13580  Biso   1.000  H
  C150     1.0000 0.80700  0.84600  0.00940  Biso   1.000  C
  N50      1.0000 0.77760  0.80400  0.98110  Biso   1.000  N
  C151     1.0000 0.76060  0.85820  0.94820  Biso   1.000  C
  N51      1.0000 0.76800  0.94450  0.94160  Biso   1.000  N
  C152     1.0000 0.79640  0.97680  0.97360  Biso   1.000  C
  N52      1.0000 0.81720  0.93220  0.00740  Biso   1.000  N
  N53      1.0000 0.67060  0.72990  0.85170  Biso   1.000  N
  C153     1.0000 0.68270  0.81080  0.84530  Biso   1.000  C
  H101     1.0000 0.67190  0.84010  0.81830  Biso   1.000  H
  C154     1.0000 0.71090  0.85640  0.87640  Biso   1.000  C
  H102     1.0000 0.71750  0.91700  0.87130  Biso   1.000  H
  C155     1.0000 0.72860  0.81440  0.91360  Biso   1.000  C
  C156     1.0000 0.71670  0.72530  0.91990  Biso   1.000  C
  H103     1.0000 0.72900  0.69260  0.94540  Biso   1.000  H
  C157     1.0000 0.68720  0.68610  0.88910  Biso   1.000  C
  H104     1.0000 0.67840  0.62730  0.89410  Biso   1.000  H
  N54      1.0000 0.82090  0.25910  0.97590  Biso   1.000  N
  C158     1.0000 0.84750  0.19920  0.99770  Biso   1.000  C
  H105     1.0000 0.87200  0.22110  0.01420  Biso   1.000  H
  C159     1.0000 0.84050  0.10860  0.99700  Biso   1.000  C
  H106     1.0000 0.85950  0.06850  0.01330  Biso   1.000  H
  C160     1.0000 0.80480  0.07550  0.97180  Biso   1.000  C
  C161     1.0000 0.77820  0.13670  0.94890  Biso   1.000  C
  H107     1.0000 0.75340  0.11750  0.93230  Biso   1.000  H
  C162     1.0000 0.78840  0.22520  0.95080  Biso   1.000  C
  H108     1.0000 0.77090  0.26590  0.93280  Biso   1.000  H
  I37      1.0000 0.97675  0.89880  0.61739  Biso   1.000  I
  I38      1.0000 0.88640  0.00430  0.69130  Biso   1.000  I
  I39      1.0000 0.76700  0.01970  0.46276  Biso   1.000  I
  I40      1.0000 0.87590  0.10410  0.55732  Biso   1.000  I
  I41      1.0000 0.87860  0.41140  0.05740  Biso   1.000  I
  Zn13     1.0000 0.83431  0.39465  0.98273  Biso   1.000  Zn
  I42      1.0000 0.77441  0.49600  0.96190  Biso   1.000  I
  N55      1.0000 0.86570  0.41850  0.93560  Biso   1.000  N
  C163     1.0000 0.85140  0.46610  0.89810  Biso   1.000  C
  H109     1.0000 0.82540  0.48970  0.89350  Biso   1.000  H
  C164     1.0000 0.87230  0.48110  0.86740  Biso   1.000  C
  H110     1.0000 0.86050  0.51130  0.84100  Biso   1.000  H
  C165     1.0000 0.91060  0.45300  0.87390  Biso   1.000  C
  C166     1.0000 0.92660  0.40800  0.91150  Biso   1.000  C
  H111     1.0000 0.95320  0.38760  0.91690  Biso   1.000  H
  C167     1.0000 0.90340  0.39100  0.94240  Biso   1.000  C
  H112     1.0000 0.91470  0.35980  0.96870  Biso   1.000  H
  C168     1.0000 0.93460  0.47050  0.84150  Biso   1.000  C
  N56      1.0000 0.92640  0.54210  0.81490  Biso   1.000  N
  C169     1.0000 0.94850  0.54870  0.78520  Biso   1.000  C
  N57      1.0000 0.97630  0.49230  0.77950  Biso   1.000  N
  C170     1.0000 0.98350  0.42600  0.80930  Biso   1.000  C
  N58      1.0000 0.96420  0.41170  0.84090  Biso   1.000  N
  N59      1.0000 0.07950  0.25400  0.80420  Biso   1.000  N
  C171     1.0000 0.06860  0.27020  0.84180  Biso   1.000  C
  H113     1.0000 0.08340  0.24310  0.86780  Biso   1.000  H
  C172     1.0000 0.03730  0.32370  0.84490  Biso   1.000  C
  H114     1.0000 0.02980  0.33120  0.87210  Biso   1.000  H
  C173     1.0000 0.01670  0.36710  0.80710  Biso   1.000  C
  C174     1.0000 0.02860  0.35010  0.76760  Biso   1.000  C
  H115     1.0000 0.01460  0.37630  0.74100  Biso   1.000  H
  C175     1.0000 0.05990  0.29670  0.76750  Biso   1.000  C
  H116     1.0000 0.06850  0.28860  0.74090  Biso   1.000  H
  I43      1.0000 0.14327  0.19304  0.72933  Biso   1.000  I
  Zn14     1.0000 0.12703  0.17090  0.80399  Biso   1.000  Zn
  I44      1.0000 0.10955  0.02307  0.83471  Biso   1.000  I
  N60      1.0000 0.93370  0.78220  0.70230  Biso   1.000  N
  C176     1.0000 0.96330  0.72350  0.70280  Biso   1.000  C
  H117     1.0000 0.98090  0.73360  0.68390  Biso   1.000  H
  C177     1.0000 0.96860  0.65000  0.72940  Biso   1.000  C
  H118     1.0000 0.99020  0.61090  0.72930  Biso   1.000  H
  C178     1.0000 0.94360  0.63150  0.75630  Biso   1.000  C
  C179     1.0000 0.91320  0.69300  0.75660  Biso   1.000  C
  H119     1.0000 0.89550  0.68400  0.77550  Biso   1.000  H
  C180     1.0000 0.90920  0.76650  0.72930  Biso   1.000  C
  H120     1.0000 0.88840  0.80770  0.72960  Biso   1.000  H
  Zn15     1.0000 0.91945  0.88458  0.65586  Biso   1.000  Zn
  N61      1.0000 0.87930  0.81420  0.60900  Biso   1.000  N
  C181     1.0000 0.88710  0.73170  0.60040  Biso   1.000  C
  H121     1.0000 0.90930  0.70420  0.61900  Biso   1.000  H
  C182     1.0000 0.86580  0.68070  0.56650  Biso   1.000  C
  H122     1.0000 0.87260  0.61970  0.56260  Biso   1.000  H
  C183     1.0000 0.83500  0.72000  0.53890  Biso   1.000  C
  C184     1.0000 0.82640  0.81050  0.54620  Biso   1.000  C
  H123     1.0000 0.80520  0.84040  0.52730  Biso   1.000  H
  C185     1.0000 0.84890  0.85430  0.58060  Biso   1.000  C
  H124     1.0000 0.84330  0.91580  0.58520  Biso   1.000  H
  C186     1.0000 0.81090  0.66900  0.50210  Biso   1.000  C
  N62      1.0000 0.82030  0.58190  0.49800  Biso   1.000  N
  C187     1.0000 0.79690  0.53580  0.46670  Biso   1.000  C
  N63      1.0000 0.76700  0.57230  0.43610  Biso   1.000  N
  C188     1.0000 0.76000  0.65890  0.44260  Biso   1.000  C
  N64      1.0000 0.78070  0.70920  0.47460  Biso   1.000  N
  N65      1.0000 0.81730  0.25210  0.47150  Biso   1.000  N
  C189     1.0000 0.78380  0.28600  0.44780  Biso   1.000  C
  H125     1.0000 0.76410  0.24500  0.43380  Biso   1.000  H
  C190     1.0000 0.77620  0.37600  0.44260  Biso   1.000  C
  H126     1.0000 0.75280  0.39730  0.42360  Biso   1.000  H
  C191     1.0000 0.80490  0.43750  0.46670  Biso   1.000  C
  C192     1.0000 0.83890  0.40310  0.49060  Biso   1.000  C
  H127     1.0000 0.85920  0.44200  0.50540  Biso   1.000  H
  C193     1.0000 0.84370  0.31070  0.49310  Biso   1.000  C
  H128     1.0000 0.86720  0.28750  0.51120  Biso   1.000  H
  N66      1.0000 0.66740  0.79190  0.35460  Biso   1.000  N
  C194     1.0000 0.68550  0.82900  0.39230  Biso   1.000  C
  H129     1.0000 0.67710  0.88690  0.39940  Biso   1.000  H
  C195     1.0000 0.71580  0.78810  0.42160  Biso   1.000  C
  H130     1.0000 0.72790  0.81730  0.44820  Biso   1.000  H
  C196     1.0000 0.72810  0.70410  0.41160  Biso   1.000  C
  C197     1.0000 0.70940  0.66280  0.37220  Biso   1.000  C
  H131     1.0000 0.71710  0.60470  0.36460  Biso   1.000  H
  C198     1.0000 0.67900  0.70940  0.34460  Biso   1.000  C
  H132     1.0000 0.66600  0.68210  0.31790  Biso   1.000  H
  I45      1.0000 0.88743  0.50836  0.19472  Biso   1.000  I
  Zn16     1.0000 0.91950  0.62964  0.15988  Biso   1.000  Zn
  I46      1.0000 0.97461  0.61744  0.11892  Biso   1.000  I
  N67      1.0000 0.93520  0.72950  0.20790  Biso   1.000  N
  C199     1.0000 0.96190  0.79220  0.20350  Biso   1.000  C
  H133     1.0000 0.97750  0.78370  0.18230  Biso   1.000  H
  C200     1.0000 0.96720  0.86990  0.22950  Biso   1.000  C
  H134     1.0000 0.98570  0.91430  0.22540  Biso   1.000  H
  C201     1.0000 0.94550  0.88170  0.26100  Biso   1.000  C
  C202     1.0000 0.91950  0.81240  0.26700  Biso   1.000  C
  H135     1.0000 0.90550  0.81540  0.28980  Biso   1.000  H
  C203     1.0000 0.91510  0.74010  0.23860  Biso   1.000  C
  H136     1.0000 0.89640  0.69510  0.24150  Biso   1.000  H
  C204     1.0000 0.94910  0.96500  0.28750  Biso   1.000  C
  N68      1.0000 0.97610  0.02440  0.28270  Biso   1.000  N
  C205     1.0000 0.98140  0.09160  0.31140  Biso   1.000  C
  N69      1.0000 0.96050  0.10490  0.34150  Biso   1.000  N
  C206     1.0000 0.93270  0.04520  0.34160  Biso   1.000  C
  N70      1.0000 0.92600  0.97230  0.31650  Biso   1.000  N
  N71      1.0000 0.86110  0.08940  0.43470  Biso   1.000  N
  C207     1.0000 0.85350  0.02380  0.40530  Biso   1.000  C
  H137     1.0000 0.83160  0.98570  0.40550  Biso   1.000  H
  C208     1.0000 0.87510  0.00790  0.37510  Biso   1.000  C
  H138     1.0000 0.86740  0.96170  0.35400  Biso   1.000  H
  C209     1.0000 0.90790  0.05770  0.37480  Biso   1.000  C
  C210     1.0000 0.91670  0.12600  0.40670  Biso   1.000  C
  H139     1.0000 0.94000  0.16120  0.40990  Biso   1.000  H
  C211     1.0000 0.89110  0.14000  0.43240  Biso   1.000  C
  H140     1.0000 0.89530  0.19130  0.45080  Biso   1.000  H
  Zn17     1.0000 0.82891  0.11504  0.48173  Biso   1.000  Zn
  N72      1.0000 0.07640  0.26940  0.30900  Biso   1.000  N
  C212     1.0000 0.06270  0.26100  0.34440  Biso   1.000  C
  H141     1.0000 0.07460  0.29470  0.36980  Biso   1.000  H
  C213     1.0000 0.03140  0.20430  0.34630  Biso   1.000  C
  H142     1.0000 0.02220  0.19850  0.37260  Biso   1.000  H
  C214     1.0000 0.01420  0.15770  0.31020  Biso   1.000  C
  C215     1.0000 0.02920  0.16270  0.27290  Biso   1.000  C
  H143     1.0000 0.01940  0.12660  0.24780  Biso   1.000  H
  C216     1.0000 0.05960  0.22380  0.27430  Biso   1.000  C
  H144     1.0000 0.06880  0.23300  0.24820  Biso   1.000  H
  I47      1.0000 0.14081  0.34920  0.23600  Biso   1.000  I
  Zn18     1.0000 0.12334  0.35653  0.31007  Biso   1.000  Zn
  I48      1.0000 0.10827  0.50092  0.34574  Biso   1.000  I
  I49      1.0000 0.88360  0.41170  0.05740  Biso   1.000  I
  I50      1.0000 0.77150  0.48800  0.95910  Biso   1.000  I
  I51      1.0000 0.97440  0.90600  0.62830  Biso   1.000  I
  I52      1.0000 0.87570  0.99600  0.69160  Biso   1.000  I
  I53      1.0000 0.76430  0.03400  0.45630  Biso   1.000  I
  I54      1.0000 0.86950  0.10010  0.55620  Biso   1.000  I
  N73      1.0000 0.37610  0.19920  0.11610  Biso   1.000  N
  C217     1.0000 0.34980  0.15760  0.08550  Biso   1.000  C
  H145     1.0000 0.34680  0.09430  0.08780  Biso   1.000  H
  C218     1.0000 0.32650  0.20180  0.05030  Biso   1.000  C
  H146     1.0000 0.30880  0.16880  0.02840  Biso   1.000  H
  C219     1.0000 0.32900  0.29180  0.04730  Biso   1.000  C
  C220     1.0000 0.35490  0.33800  0.08070  Biso   1.000  C
  H147     1.0000 0.35650  0.40190  0.08100  Biso   1.000  H
  C221     1.0000 0.37820  0.28580  0.11370  Biso   1.000  C
  H148     1.0000 0.39680  0.31610  0.13580  Biso   1.000  H
  C222     1.0000 0.30700  0.34600  0.00940  Biso   1.000  C
  N74      1.0000 0.27760  0.30400  0.98110  Biso   1.000  N
  C223     1.0000 0.26060  0.35820  0.94820  Biso   1.000  C
  N75      1.0000 0.26800  0.44450  0.94160  Biso   1.000  N
  C224     1.0000 0.29640  0.47680  0.97360  Biso   1.000  C
  N76      1.0000 0.31720  0.43220  0.00740  Biso   1.000  N
  N77      1.0000 0.17060  0.22990  0.85170  Biso   1.000  N
  C225     1.0000 0.18270  0.31080  0.84530  Biso   1.000  C
  H149     1.0000 0.17190  0.34010  0.81830  Biso   1.000  H
  C226     1.0000 0.21090  0.35640  0.87640  Biso   1.000  C
  H150     1.0000 0.21750  0.41700  0.87130  Biso   1.000  H
  C227     1.0000 0.22860  0.31440  0.91360  Biso   1.000  C
  C228     1.0000 0.21670  0.22530  0.91990  Biso   1.000  C
  H151     1.0000 0.22900  0.19260  0.94540  Biso   1.000  H
  C229     1.0000 0.18720  0.18610  0.88910  Biso   1.000  C
  H152     1.0000 0.17840  0.12730  0.89410  Biso   1.000  H
  N78      1.0000 0.32090  0.75910  0.97590  Biso   1.000  N
  C230     1.0000 0.34750  0.69920  0.99770  Biso   1.000  C
  H153     1.0000 0.37200  0.72110  0.01420  Biso   1.000  H
  C231     1.0000 0.34050  0.60860  0.99700  Biso   1.000  C
  H154     1.0000 0.35950  0.56850  0.01330  Biso   1.000  H
  C232     1.0000 0.30480  0.57550  0.97180  Biso   1.000  C
  C233     1.0000 0.27820  0.63670  0.94890  Biso   1.000  C
  H155     1.0000 0.25340  0.61750  0.93230  Biso   1.000  H
  C234     1.0000 0.28840  0.72520  0.95080  Biso   1.000  C
  H156     1.0000 0.27090  0.76590  0.93280  Biso   1.000  H
  I55      1.0000 0.47675  0.39880  0.61739  Biso   1.000  I
  I56      1.0000 0.38640  0.50430  0.69130  Biso   1.000  I
  I57      1.0000 0.26700  0.51970  0.46276  Biso   1.000  I
  I58      1.0000 0.37590  0.60410  0.55732  Biso   1.000  I
  I59      1.0000 0.37860  0.91140  0.05740  Biso   1.000  I
  Zn19     1.0000 0.33431  0.89465  0.98273  Biso   1.000  Zn
  I60      1.0000 0.27441  0.99600  0.96190  Biso   1.000  I
  N79      1.0000 0.36570  0.91850  0.93560  Biso   1.000  N
  C235     1.0000 0.35140  0.96610  0.89810  Biso   1.000  C
  H157     1.0000 0.32540  0.98970  0.89350  Biso   1.000  H
  C236     1.0000 0.37230  0.98110  0.86740  Biso   1.000  C
  H158     1.0000 0.36050  0.01130  0.84100  Biso   1.000  H
  C237     1.0000 0.41060  0.95300  0.87390  Biso   1.000  C
  C238     1.0000 0.42660  0.90800  0.91150  Biso   1.000  C
  H159     1.0000 0.45320  0.88760  0.91690  Biso   1.000  H
  C239     1.0000 0.40340  0.89100  0.94240  Biso   1.000  C
  H160     1.0000 0.41470  0.85980  0.96870  Biso   1.000  H
  C240     1.0000 0.43460  0.97050  0.84150  Biso   1.000  C
  N80      1.0000 0.42640  0.04210  0.81490  Biso   1.000  N
  C241     1.0000 0.44850  0.04870  0.78520  Biso   1.000  C
  N81      1.0000 0.47630  0.99230  0.77950  Biso   1.000  N
  C242     1.0000 0.48350  0.92600  0.80930  Biso   1.000  C
  N82      1.0000 0.46420  0.91170  0.84090  Biso   1.000  N
  N83      1.0000 0.57950  0.75400  0.80420  Biso   1.000  N
  C243     1.0000 0.56860  0.77020  0.84180  Biso   1.000  C
  H161     1.0000 0.58340  0.74310  0.86780  Biso   1.000  H
  C244     1.0000 0.53730  0.82370  0.84490  Biso   1.000  C
  H162     1.0000 0.52980  0.83120  0.87210  Biso   1.000  H
  C245     1.0000 0.51670  0.86710  0.80710  Biso   1.000  C
  C246     1.0000 0.52860  0.85010  0.76760  Biso   1.000  C
  H163     1.0000 0.51460  0.87630  0.74100  Biso   1.000  H
  C247     1.0000 0.55990  0.79670  0.76750  Biso   1.000  C
  H164     1.0000 0.56850  0.78860  0.74090  Biso   1.000  H
  I61      1.0000 0.64327  0.69304  0.72933  Biso   1.000  I
  Zn20     1.0000 0.62703  0.67090  0.80399  Biso   1.000  Zn
  I62      1.0000 0.60955  0.52307  0.83471  Biso   1.000  I
  N84      1.0000 0.43370  0.28220  0.70230  Biso   1.000  N
  C248     1.0000 0.46330  0.22350  0.70280  Biso   1.000  C
  H165     1.0000 0.48090  0.23360  0.68390  Biso   1.000  H
  C249     1.0000 0.46860  0.15000  0.72940  Biso   1.000  C
  H166     1.0000 0.49020  0.11090  0.72930  Biso   1.000  H
  C250     1.0000 0.44360  0.13150  0.75630  Biso   1.000  C
  C251     1.0000 0.41320  0.19300  0.75660  Biso   1.000  C
  H167     1.0000 0.39550  0.18400  0.77550  Biso   1.000  H
  C252     1.0000 0.40920  0.26650  0.72930  Biso   1.000  C
  H168     1.0000 0.38840  0.30770  0.72960  Biso   1.000  H
  Zn21     1.0000 0.41945  0.38458  0.65586  Biso   1.000  Zn
  N85      1.0000 0.37930  0.31420  0.60900  Biso   1.000  N
  C253     1.0000 0.38710  0.23170  0.60040  Biso   1.000  C
  H169     1.0000 0.40930  0.20420  0.61900  Biso   1.000  H
  C254     1.0000 0.36580  0.18070  0.56650  Biso   1.000  C
  H170     1.0000 0.37260  0.11970  0.56260  Biso   1.000  H
  C255     1.0000 0.33500  0.22000  0.53890  Biso   1.000  C
  C256     1.0000 0.32640  0.31050  0.54620  Biso   1.000  C
  H171     1.0000 0.30520  0.34040  0.52730  Biso   1.000  H
  C257     1.0000 0.34890  0.35430  0.58060  Biso   1.000  C
  H172     1.0000 0.34330  0.41580  0.58520  Biso   1.000  H
  C258     1.0000 0.31090  0.16900  0.50210  Biso   1.000  C
  N86      1.0000 0.32030  0.08190  0.49800  Biso   1.000  N
  C259     1.0000 0.29690  0.03580  0.46670  Biso   1.000  C
  N87      1.0000 0.26700  0.07230  0.43610  Biso   1.000  N
  C260     1.0000 0.26000  0.15890  0.44260  Biso   1.000  C
  N88      1.0000 0.28070  0.20920  0.47460  Biso   1.000  N
  N89      1.0000 0.31730  0.75210  0.47150  Biso   1.000  N
  C261     1.0000 0.28380  0.78600  0.44780  Biso   1.000  C
  H173     1.0000 0.26410  0.74500  0.43380  Biso   1.000  H
  C262     1.0000 0.27620  0.87600  0.44260  Biso   1.000  C
  H174     1.0000 0.25280  0.89730  0.42360  Biso   1.000  H
  C263     1.0000 0.30490  0.93750  0.46670  Biso   1.000  C
  C264     1.0000 0.33890  0.90310  0.49060  Biso   1.000  C
  H175     1.0000 0.35920  0.94200  0.50540  Biso   1.000  H
  C265     1.0000 0.34370  0.81070  0.49310  Biso   1.000  C
  H176     1.0000 0.36720  0.78750  0.51120  Biso   1.000  H
  N90      1.0000 0.16740  0.29190  0.35460  Biso   1.000  N
  C266     1.0000 0.18550  0.32900  0.39230  Biso   1.000  C
  H177     1.0000 0.17710  0.38690  0.39940  Biso   1.000  H
  C267     1.0000 0.21580  0.28810  0.42160  Biso   1.000  C
  H178     1.0000 0.22790  0.31730  0.44820  Biso   1.000  H
  C268     1.0000 0.22810  0.20410  0.41160  Biso   1.000  C
  C269     1.0000 0.20940  0.16280  0.37220  Biso   1.000  C
  H179     1.0000 0.21710  0.10470  0.36460  Biso   1.000  H
  C270     1.0000 0.17900  0.20940  0.34460  Biso   1.000  C
  H180     1.0000 0.16600  0.18210  0.31790  Biso   1.000  H
  I63      1.0000 0.38743  0.00836  0.19472  Biso   1.000  I
  Zn22     1.0000 0.41950  0.12964  0.15988  Biso   1.000  Zn
  I64      1.0000 0.47461  0.11744  0.11892  Biso   1.000  I
  N91      1.0000 0.43520  0.22950  0.20790  Biso   1.000  N
  C271     1.0000 0.46190  0.29220  0.20350  Biso   1.000  C
  H181     1.0000 0.47750  0.28370  0.18230  Biso   1.000  H
  C272     1.0000 0.46720  0.36990  0.22950  Biso   1.000  C
  H182     1.0000 0.48570  0.41430  0.22540  Biso   1.000  H
  C273     1.0000 0.44550  0.38170  0.26100  Biso   1.000  C
  C274     1.0000 0.41950  0.31240  0.26700  Biso   1.000  C
  H183     1.0000 0.40550  0.31540  0.28980  Biso   1.000  H
  C275     1.0000 0.41510  0.24010  0.23860  Biso   1.000  C
  H184     1.0000 0.39640  0.19510  0.24150  Biso   1.000  H
  C276     1.0000 0.44910  0.46500  0.28750  Biso   1.000  C
  N92      1.0000 0.47610  0.52440  0.28270  Biso   1.000  N
  C277     1.0000 0.48140  0.59160  0.31140  Biso   1.000  C
  N93      1.0000 0.46050  0.60490  0.34150  Biso   1.000  N
  C278     1.0000 0.43270  0.54520  0.34160  Biso   1.000  C
  N94      1.0000 0.42600  0.47230  0.31650  Biso   1.000  N
  N95      1.0000 0.36110  0.58940  0.43470  Biso   1.000  N
  C279     1.0000 0.35350  0.52380  0.40530  Biso   1.000  C
  H185     1.0000 0.33160  0.48570  0.40550  Biso   1.000  H
  C280     1.0000 0.37510  0.50790  0.37510  Biso   1.000  C
  H186     1.0000 0.36740  0.46170  0.35400  Biso   1.000  H
  C281     1.0000 0.40790  0.55770  0.37480  Biso   1.000  C
  C282     1.0000 0.41670  0.62600  0.40670  Biso   1.000  C
  H187     1.0000 0.44000  0.66120  0.40990  Biso   1.000  H
  C283     1.0000 0.39110  0.64000  0.43240  Biso   1.000  C
  H188     1.0000 0.39530  0.69130  0.45080  Biso   1.000  H
  Zn23     1.0000 0.32891  0.61504  0.48173  Biso   1.000  Zn
  N96      1.0000 0.57640  0.76940  0.30900  Biso   1.000  N
  C284     1.0000 0.56270  0.76100  0.34440  Biso   1.000  C
  H189     1.0000 0.57460  0.79470  0.36980  Biso   1.000  H
  C285     1.0000 0.53140  0.70430  0.34630  Biso   1.000  C
  H190     1.0000 0.52220  0.69850  0.37260  Biso   1.000  H
  C286     1.0000 0.51420  0.65770  0.31020  Biso   1.000  C
  C287     1.0000 0.52920  0.66270  0.27290  Biso   1.000  C
  H191     1.0000 0.51940  0.62660  0.24780  Biso   1.000  H
  C288     1.0000 0.55960  0.72380  0.27430  Biso   1.000  C
  H192     1.0000 0.56880  0.73300  0.24820  Biso   1.000  H
  I65      1.0000 0.64081  0.84920  0.23600  Biso   1.000  I
  Zn24     1.0000 0.62334  0.85653  0.31007  Biso   1.000  Zn
  I66      1.0000 0.60827  0.00092  0.34574  Biso   1.000  I
  I67      1.0000 0.38360  0.91170  0.05740  Biso   1.000  I
  I68      1.0000 0.27150  0.98800  0.95910  Biso   1.000  I
  I69      1.0000 0.47440  0.40600  0.62830  Biso   1.000  I
  I70      1.0000 0.37570  0.49600  0.69160  Biso   1.000  I
  I71      1.0000 0.26430  0.53400  0.45630  Biso   1.000  I
  I72      1.0000 0.36950  0.60010  0.55620  Biso   1.000  I
