data_image0
_cell_length_a       26.3
_cell_length_b       26.3
_cell_length_c       28.48
_cell_angle_alpha    90
_cell_angle_beta     90
_cell_angle_gamma    90

_symmetry_space_group_name_H-M    "P 1"
_symmetry_int_tables_number       1

loop_
  _symmetry_equiv_pos_as_xyz
  'x, y, z'

loop_
  _atom_site_label
  _atom_site_occupancy
  _atom_site_fract_x
  _atom_site_fract_y
  _atom_site_fract_z
  _atom_site_thermal_displace_type
  _atom_site_B_iso_or_equiv
  _atom_site_type_symbol
  N1       1.0000 0.60218  0.79583  0.19646  Biso   1.000  N
  O1       1.0000 0.52083  0.57143  0.14942  Biso   1.000  O
  O2       1.0000 0.52183  0.57087  0.22859  Biso   1.000  O
  O3       1.0000 0.48610  0.93481  0.04925  Biso   1.000  O
  O4       1.0000 0.56261  0.97291  0.04833  Biso   1.000  O
  C1       1.0000 0.52803  0.59182  0.18905  Biso   1.000  C
  C2       1.0000 0.54618  0.64591  0.19060  Biso   1.000  C
  C3       1.0000 0.55476  0.66870  0.23310  Biso   1.000  C
  H1       1.0000 0.54880  0.65110  0.26090  Biso   1.000  H
  C4       1.0000 0.57289  0.71947  0.23432  Biso   1.000  C
  H2       1.0000 0.57870  0.73530  0.26300  Biso   1.000  H
  C5       1.0000 0.58187  0.74504  0.19373  Biso   1.000  C
  C6       1.0000 0.57321  0.72122  0.15106  Biso   1.000  C
  H3       1.0000 0.57940  0.73880  0.12330  Biso   1.000  H
  C7       1.0000 0.55570  0.67235  0.14921  Biso   1.000  C
  H4       1.0000 0.55020  0.65680  0.12030  Biso   1.000  H
  C8       1.0000 0.53200  0.94014  0.06189  Biso   1.000  C
  C9       1.0000 0.55014  0.90327  0.09903  Biso   1.000  C
  C10      1.0000 0.59984  0.90329  0.11290  Biso   1.000  C
  H5       1.0000 0.62200  0.92730  0.10050  Biso   1.000  H
  C11      1.0000 0.61788  0.86804  0.14523  Biso   1.000  C
  H6       1.0000 0.65210  0.86780  0.15340  Biso   1.000  H
  C12      1.0000 0.58475  0.83325  0.16536  Biso   1.000  C
  C13      1.0000 0.53370  0.83466  0.15248  Biso   1.000  C
  H7       1.0000 0.51090  0.81180  0.16580  Biso   1.000  H
  C14      1.0000 0.51691  0.86919  0.12053  Biso   1.000  C
  H8       1.0000 0.48260  0.87010  0.11290  Biso   1.000  H
  C15      1.0000 0.64768  0.80270  0.22314  Biso   1.000  C
  C16      1.0000 0.68409  0.76544  0.22320  Biso   1.000  C
  H9       1.0000 0.67960  0.73600  0.20550  Biso   1.000  H
  C17      1.0000 0.48620  0.54190  0.33420  Biso   1.000  C
  H10      1.0000 0.47680  0.57100  0.31790  Biso   1.000  H
  Pd1      1.0000 0.48370  0.52859  0.50170  Biso   1.000  Pd
  N2       1.0000 0.47660  0.59110  0.45250  Biso   1.000  N
  C18      1.0000 0.46630  0.59010  0.40640  Biso   1.000  C
  H11      1.0000 0.44900  0.61580  0.39070  Biso   1.000  H
  C19      1.0000 0.48580  0.54240  0.38290  Biso   1.000  C
  O5       1.0000 0.52840  0.49600  0.45390  Biso   1.000  O
  C20      1.0000 0.50220  0.63810  0.47380  Biso   1.000  C
  H12      1.0000 0.53700  0.63980  0.46270  Biso   1.000  H
  H13      1.0000 0.48470  0.66830  0.46270  Biso   1.000  H
  N3       1.0000 0.39782  0.20417  0.19646  Biso   1.000  N
  O6       1.0000 0.47917  0.42857  0.14942  Biso   1.000  O
  O7       1.0000 0.47817  0.42913  0.22859  Biso   1.000  O
  O8       1.0000 0.51390  0.06519  0.04925  Biso   1.000  O
  O9       1.0000 0.43739  0.02709  0.04833  Biso   1.000  O
  C21      1.0000 0.47197  0.40818  0.18905  Biso   1.000  C
  C22      1.0000 0.45382  0.35409  0.19060  Biso   1.000  C
  C23      1.0000 0.44524  0.33130  0.23310  Biso   1.000  C
  H14      1.0000 0.45120  0.34890  0.26090  Biso   1.000  H
  C24      1.0000 0.42711  0.28053  0.23432  Biso   1.000  C
  H15      1.0000 0.42130  0.26470  0.26300  Biso   1.000  H
  C25      1.0000 0.41813  0.25496  0.19373  Biso   1.000  C
  C26      1.0000 0.42679  0.27878  0.15106  Biso   1.000  C
  H16      1.0000 0.42060  0.26120  0.12330  Biso   1.000  H
  C27      1.0000 0.44430  0.32765  0.14921  Biso   1.000  C
  H17      1.0000 0.44980  0.34320  0.12030  Biso   1.000  H
  C28      1.0000 0.46800  0.05986  0.06189  Biso   1.000  C
  C29      1.0000 0.44986  0.09673  0.09903  Biso   1.000  C
  C30      1.0000 0.40016  0.09671  0.11290  Biso   1.000  C
  H18      1.0000 0.37800  0.07270  0.10050  Biso   1.000  H
  C31      1.0000 0.38212  0.13196  0.14523  Biso   1.000  C
  H19      1.0000 0.34790  0.13220  0.15340  Biso   1.000  H
  C32      1.0000 0.41525  0.16675  0.16536  Biso   1.000  C
  C33      1.0000 0.46630  0.16534  0.15248  Biso   1.000  C
  H20      1.0000 0.48910  0.18820  0.16580  Biso   1.000  H
  C34      1.0000 0.48309  0.13081  0.12053  Biso   1.000  C
  H21      1.0000 0.51740  0.12990  0.11290  Biso   1.000  H
  C35      1.0000 0.35232  0.19730  0.22314  Biso   1.000  C
  C36      1.0000 0.31591  0.23456  0.22320  Biso   1.000  C
  H22      1.0000 0.32040  0.26400  0.20550  Biso   1.000  H
  C37      1.0000 0.51380  0.45810  0.33420  Biso   1.000  C
  H23      1.0000 0.52320  0.42900  0.31790  Biso   1.000  H
  Pd2      1.0000 0.51630  0.47141  0.50170  Biso   1.000  Pd
  N4       1.0000 0.52340  0.40890  0.45250  Biso   1.000  N
  C38      1.0000 0.53370  0.40990  0.40640  Biso   1.000  C
  H24      1.0000 0.55100  0.38420  0.39070  Biso   1.000  H
  C39      1.0000 0.51420  0.45760  0.38290  Biso   1.000  C
  O10      1.0000 0.47160  0.50400  0.45390  Biso   1.000  O
  C40      1.0000 0.49780  0.36190  0.47380  Biso   1.000  C
  H25      1.0000 0.46300  0.36020  0.46270  Biso   1.000  H
  H26      1.0000 0.51530  0.33170  0.46270  Biso   1.000  H
  N5       1.0000 0.20417  0.60218  0.19646  Biso   1.000  N
  O11      1.0000 0.42857  0.52083  0.14942  Biso   1.000  O
  O12      1.0000 0.42913  0.52183  0.22859  Biso   1.000  O
  O13      1.0000 0.06519  0.48610  0.04925  Biso   1.000  O
  O14      1.0000 0.02709  0.56261  0.04833  Biso   1.000  O
  C41      1.0000 0.40818  0.52803  0.18905  Biso   1.000  C
  C42      1.0000 0.35409  0.54618  0.19060  Biso   1.000  C
  C43      1.0000 0.33130  0.55476  0.23310  Biso   1.000  C
  H27      1.0000 0.34890  0.54880  0.26090  Biso   1.000  H
  C44      1.0000 0.28053  0.57289  0.23432  Biso   1.000  C
  H28      1.0000 0.26470  0.57870  0.26300  Biso   1.000  H
  C45      1.0000 0.25496  0.58187  0.19373  Biso   1.000  C
  C46      1.0000 0.27878  0.57321  0.15106  Biso   1.000  C
  H29      1.0000 0.26120  0.57940  0.12330  Biso   1.000  H
  C47      1.0000 0.32765  0.55570  0.14921  Biso   1.000  C
  H30      1.0000 0.34320  0.55020  0.12030  Biso   1.000  H
  C48      1.0000 0.05986  0.53200  0.06189  Biso   1.000  C
  C49      1.0000 0.09673  0.55014  0.09903  Biso   1.000  C
  C50      1.0000 0.09671  0.59984  0.11290  Biso   1.000  C
  H31      1.0000 0.07270  0.62200  0.10050  Biso   1.000  H
  C51      1.0000 0.13196  0.61788  0.14523  Biso   1.000  C
  H32      1.0000 0.13220  0.65210  0.15340  Biso   1.000  H
  C52      1.0000 0.16675  0.58475  0.16536  Biso   1.000  C
  C53      1.0000 0.16534  0.53370  0.15248  Biso   1.000  C
  H33      1.0000 0.18820  0.51090  0.16580  Biso   1.000  H
  C54      1.0000 0.13081  0.51691  0.12053  Biso   1.000  C
  H34      1.0000 0.12990  0.48260  0.11290  Biso   1.000  H
  C55      1.0000 0.19730  0.64768  0.22314  Biso   1.000  C
  C56      1.0000 0.23456  0.68409  0.22320  Biso   1.000  C
  H35      1.0000 0.26400  0.67960  0.20550  Biso   1.000  H
  C57      1.0000 0.45810  0.48620  0.33420  Biso   1.000  C
  H36      1.0000 0.42900  0.47680  0.31790  Biso   1.000  H
  Pd3      1.0000 0.47141  0.48370  0.50170  Biso   1.000  Pd
  N6       1.0000 0.40890  0.47660  0.45250  Biso   1.000  N
  C58      1.0000 0.40990  0.46630  0.40640  Biso   1.000  C
  H37      1.0000 0.38420  0.44900  0.39070  Biso   1.000  H
  C59      1.0000 0.45760  0.48580  0.38290  Biso   1.000  C
  O15      1.0000 0.50400  0.52840  0.45390  Biso   1.000  O
  C60      1.0000 0.36190  0.50220  0.47380  Biso   1.000  C
  H38      1.0000 0.36020  0.53700  0.46270  Biso   1.000  H
  H39      1.0000 0.33170  0.48470  0.46270  Biso   1.000  H
  N7       1.0000 0.79583  0.39782  0.19646  Biso   1.000  N
  O16      1.0000 0.57143  0.47917  0.14942  Biso   1.000  O
  O17      1.0000 0.57087  0.47817  0.22859  Biso   1.000  O
  O18      1.0000 0.93481  0.51390  0.04925  Biso   1.000  O
  O19      1.0000 0.97291  0.43739  0.04833  Biso   1.000  O
  C61      1.0000 0.59182  0.47197  0.18905  Biso   1.000  C
  C62      1.0000 0.64591  0.45382  0.19060  Biso   1.000  C
  C63      1.0000 0.66870  0.44524  0.23310  Biso   1.000  C
  H40      1.0000 0.65110  0.45120  0.26090  Biso   1.000  H
  C64      1.0000 0.71947  0.42711  0.23432  Biso   1.000  C
  H41      1.0000 0.73530  0.42130  0.26300  Biso   1.000  H
  C65      1.0000 0.74504  0.41813  0.19373  Biso   1.000  C
  C66      1.0000 0.72122  0.42679  0.15106  Biso   1.000  C
  H42      1.0000 0.73880  0.42060  0.12330  Biso   1.000  H
  C67      1.0000 0.67235  0.44430  0.14921  Biso   1.000  C
  H43      1.0000 0.65680  0.44980  0.12030  Biso   1.000  H
  C68      1.0000 0.94014  0.46800  0.06189  Biso   1.000  C
  C69      1.0000 0.90327  0.44986  0.09903  Biso   1.000  C
  C70      1.0000 0.90329  0.40016  0.11290  Biso   1.000  C
  H44      1.0000 0.92730  0.37800  0.10050  Biso   1.000  H
  C71      1.0000 0.86804  0.38212  0.14523  Biso   1.000  C
  H45      1.0000 0.86780  0.34790  0.15340  Biso   1.000  H
  C72      1.0000 0.83325  0.41525  0.16536  Biso   1.000  C
  C73      1.0000 0.83466  0.46630  0.15248  Biso   1.000  C
  H46      1.0000 0.81180  0.48910  0.16580  Biso   1.000  H
  C74      1.0000 0.86919  0.48309  0.12053  Biso   1.000  C
  H47      1.0000 0.87010  0.51740  0.11290  Biso   1.000  H
  C75      1.0000 0.80270  0.35232  0.22314  Biso   1.000  C
  C76      1.0000 0.76544  0.31591  0.22320  Biso   1.000  C
  H48      1.0000 0.73600  0.32040  0.20550  Biso   1.000  H
  C77      1.0000 0.54190  0.51380  0.33420  Biso   1.000  C
  H49      1.0000 0.57100  0.52320  0.31790  Biso   1.000  H
  Pd4      1.0000 0.52859  0.51630  0.50170  Biso   1.000  Pd
  N8       1.0000 0.59110  0.52340  0.45250  Biso   1.000  N
  C78      1.0000 0.59010  0.53370  0.40640  Biso   1.000  C
  H50      1.0000 0.61580  0.55100  0.39070  Biso   1.000  H
  C79      1.0000 0.54240  0.51420  0.38290  Biso   1.000  C
  O20      1.0000 0.49600  0.47160  0.45390  Biso   1.000  O
  C80      1.0000 0.63810  0.49780  0.47380  Biso   1.000  C
  H51      1.0000 0.63980  0.46300  0.46270  Biso   1.000  H
  H52      1.0000 0.66830  0.51530  0.46270  Biso   1.000  H
  N9       1.0000 0.89782  0.29583  0.30354  Biso   1.000  N
  O21      1.0000 0.97917  0.07143  0.35058  Biso   1.000  O
  O22      1.0000 0.97817  0.07087  0.27141  Biso   1.000  O
  O23      1.0000 0.01390  0.43481  0.45075  Biso   1.000  O
  O24      1.0000 0.93739  0.47291  0.45167  Biso   1.000  O
  C81      1.0000 0.97197  0.09182  0.31095  Biso   1.000  C
  C82      1.0000 0.95382  0.14591  0.30940  Biso   1.000  C
  C83      1.0000 0.94524  0.16870  0.26690  Biso   1.000  C
  H53      1.0000 0.95120  0.15110  0.23910  Biso   1.000  H
  C84      1.0000 0.92711  0.21947  0.26568  Biso   1.000  C
  H54      1.0000 0.92130  0.23530  0.23700  Biso   1.000  H
  C85      1.0000 0.91813  0.24504  0.30627  Biso   1.000  C
  C86      1.0000 0.92679  0.22122  0.34894  Biso   1.000  C
  H55      1.0000 0.92060  0.23880  0.37670  Biso   1.000  H
  C87      1.0000 0.94430  0.17235  0.35079  Biso   1.000  C
  H56      1.0000 0.94980  0.15680  0.37970  Biso   1.000  H
  C88      1.0000 0.96800  0.44014  0.43811  Biso   1.000  C
  C89      1.0000 0.94986  0.40327  0.40097  Biso   1.000  C
  C90      1.0000 0.90016  0.40329  0.38710  Biso   1.000  C
  H57      1.0000 0.87800  0.42730  0.39950  Biso   1.000  H
  C91      1.0000 0.88212  0.36804  0.35477  Biso   1.000  C
  H58      1.0000 0.84790  0.36780  0.34660  Biso   1.000  H
  C92      1.0000 0.91525  0.33325  0.33464  Biso   1.000  C
  C93      1.0000 0.96630  0.33466  0.34752  Biso   1.000  C
  H59      1.0000 0.98910  0.31180  0.33420  Biso   1.000  H
  C94      1.0000 0.98309  0.36919  0.37947  Biso   1.000  C
  H60      1.0000 0.01740  0.37010  0.38710  Biso   1.000  H
  C95      1.0000 0.85232  0.30270  0.27686  Biso   1.000  C
  C96      1.0000 0.81591  0.26544  0.27680  Biso   1.000  C
  H61      1.0000 0.82040  0.23600  0.29450  Biso   1.000  H
  C97      1.0000 0.01380  0.04190  0.16580  Biso   1.000  C
  H62      1.0000 0.02320  0.07100  0.18210  Biso   1.000  H
  Pd5      1.0000 0.01630  0.02859  0.99830  Biso   1.000  Pd
  N10      1.0000 0.02340  0.09110  0.04750  Biso   1.000  N
  C98      1.0000 0.03370  0.09010  0.09360  Biso   1.000  C
  H63      1.0000 0.05100  0.11580  0.10930  Biso   1.000  H
  C99      1.0000 0.01420  0.04240  0.11710  Biso   1.000  C
  O25      1.0000 0.97160  0.99600  0.04610  Biso   1.000  O
  C100     1.0000 0.99780  0.13810  0.02620  Biso   1.000  C
  H64      1.0000 0.96300  0.13980  0.03730  Biso   1.000  H
  H65      1.0000 0.01530  0.16830  0.03730  Biso   1.000  H
  N11      1.0000 0.10218  0.70417  0.30354  Biso   1.000  N
  O26      1.0000 0.02083  0.92857  0.35058  Biso   1.000  O
  O27      1.0000 0.02183  0.92913  0.27141  Biso   1.000  O
  O28      1.0000 0.98610  0.56519  0.45075  Biso   1.000  O
  O29      1.0000 0.06261  0.52709  0.45167  Biso   1.000  O
  C101     1.0000 0.02803  0.90818  0.31095  Biso   1.000  C
  C102     1.0000 0.04618  0.85409  0.30940  Biso   1.000  C
  C103     1.0000 0.05476  0.83130  0.26690  Biso   1.000  C
  H66      1.0000 0.04880  0.84890  0.23910  Biso   1.000  H
  C104     1.0000 0.07289  0.78053  0.26568  Biso   1.000  C
  H67      1.0000 0.07870  0.76470  0.23700  Biso   1.000  H
  C105     1.0000 0.08187  0.75496  0.30627  Biso   1.000  C
  C106     1.0000 0.07321  0.77878  0.34894  Biso   1.000  C
  H68      1.0000 0.07940  0.76120  0.37670  Biso   1.000  H
  C107     1.0000 0.05570  0.82765  0.35079  Biso   1.000  C
  H69      1.0000 0.05020  0.84320  0.37970  Biso   1.000  H
  C108     1.0000 0.03200  0.55986  0.43811  Biso   1.000  C
  C109     1.0000 0.05014  0.59673  0.40097  Biso   1.000  C
  C110     1.0000 0.09984  0.59671  0.38710  Biso   1.000  C
  H70      1.0000 0.12200  0.57270  0.39950  Biso   1.000  H
  C111     1.0000 0.11788  0.63196  0.35477  Biso   1.000  C
  H71      1.0000 0.15210  0.63220  0.34660  Biso   1.000  H
  C112     1.0000 0.08475  0.66675  0.33464  Biso   1.000  C
  C113     1.0000 0.03370  0.66534  0.34752  Biso   1.000  C
  H72      1.0000 0.01090  0.68820  0.33420  Biso   1.000  H
  C114     1.0000 0.01691  0.63081  0.37947  Biso   1.000  C
  H73      1.0000 0.98260  0.62990  0.38710  Biso   1.000  H
  C115     1.0000 0.14768  0.69730  0.27686  Biso   1.000  C
  C116     1.0000 0.18409  0.73456  0.27680  Biso   1.000  C
  H74      1.0000 0.17960  0.76400  0.29450  Biso   1.000  H
  C117     1.0000 0.98620  0.95810  0.16580  Biso   1.000  C
  H75      1.0000 0.97680  0.92900  0.18210  Biso   1.000  H
  Pd6      1.0000 0.98370  0.97141  0.99830  Biso   1.000  Pd
  N12      1.0000 0.97660  0.90890  0.04750  Biso   1.000  N
  C118     1.0000 0.96630  0.90990  0.09360  Biso   1.000  C
  H76      1.0000 0.94900  0.88420  0.10930  Biso   1.000  H
  C119     1.0000 0.98580  0.95760  0.11710  Biso   1.000  C
  O30      1.0000 0.02840  0.00400  0.04610  Biso   1.000  O
  C120     1.0000 0.00220  0.86190  0.02620  Biso   1.000  C
  H77      1.0000 0.03700  0.86020  0.03730  Biso   1.000  H
  H78      1.0000 0.98470  0.83170  0.03730  Biso   1.000  H
  N13      1.0000 0.29583  0.10218  0.30354  Biso   1.000  N
  O31      1.0000 0.07143  0.02083  0.35058  Biso   1.000  O
  O32      1.0000 0.07087  0.02183  0.27141  Biso   1.000  O
  O33      1.0000 0.43481  0.98610  0.45075  Biso   1.000  O
  O34      1.0000 0.47291  0.06261  0.45167  Biso   1.000  O
  C121     1.0000 0.09182  0.02803  0.31095  Biso   1.000  C
  C122     1.0000 0.14591  0.04618  0.30940  Biso   1.000  C
  C123     1.0000 0.16870  0.05476  0.26690  Biso   1.000  C
  H79      1.0000 0.15110  0.04880  0.23910  Biso   1.000  H
  C124     1.0000 0.21947  0.07289  0.26568  Biso   1.000  C
  H80      1.0000 0.23530  0.07870  0.23700  Biso   1.000  H
  C125     1.0000 0.24504  0.08187  0.30627  Biso   1.000  C
  C126     1.0000 0.22122  0.07321  0.34894  Biso   1.000  C
  H81      1.0000 0.23880  0.07940  0.37670  Biso   1.000  H
  C127     1.0000 0.17235  0.05570  0.35079  Biso   1.000  C
  H82      1.0000 0.15680  0.05020  0.37970  Biso   1.000  H
  C128     1.0000 0.44014  0.03200  0.43811  Biso   1.000  C
  C129     1.0000 0.40327  0.05014  0.40097  Biso   1.000  C
  C130     1.0000 0.40329  0.09984  0.38710  Biso   1.000  C
  H83      1.0000 0.42730  0.12200  0.39950  Biso   1.000  H
  C131     1.0000 0.36804  0.11788  0.35477  Biso   1.000  C
  H84      1.0000 0.36780  0.15210  0.34660  Biso   1.000  H
  C132     1.0000 0.33325  0.08475  0.33464  Biso   1.000  C
  C133     1.0000 0.33466  0.03370  0.34752  Biso   1.000  C
  H85      1.0000 0.31180  0.01090  0.33420  Biso   1.000  H
  C134     1.0000 0.36919  0.01691  0.37947  Biso   1.000  C
  H86      1.0000 0.37010  0.98260  0.38710  Biso   1.000  H
  C135     1.0000 0.30270  0.14768  0.27686  Biso   1.000  C
  C136     1.0000 0.26544  0.18409  0.27680  Biso   1.000  C
  H87      1.0000 0.23600  0.17960  0.29450  Biso   1.000  H
  C137     1.0000 0.04190  0.98620  0.16580  Biso   1.000  C
  H88      1.0000 0.07100  0.97680  0.18210  Biso   1.000  H
  Pd7      1.0000 0.02859  0.98370  0.99830  Biso   1.000  Pd
  N14      1.0000 0.09110  0.97660  0.04750  Biso   1.000  N
  C138     1.0000 0.09010  0.96630  0.09360  Biso   1.000  C
  H89      1.0000 0.11580  0.94900  0.10930  Biso   1.000  H
  C139     1.0000 0.04240  0.98580  0.11710  Biso   1.000  C
  O35      1.0000 0.99600  0.02840  0.04610  Biso   1.000  O
  C140     1.0000 0.13810  0.00220  0.02620  Biso   1.000  C
  H90      1.0000 0.13980  0.03700  0.03730  Biso   1.000  H
  H91      1.0000 0.16830  0.98470  0.03730  Biso   1.000  H
  N15      1.0000 0.70417  0.89782  0.30354  Biso   1.000  N
  O36      1.0000 0.92857  0.97917  0.35058  Biso   1.000  O
  O37      1.0000 0.92913  0.97817  0.27141  Biso   1.000  O
  O38      1.0000 0.56519  0.01390  0.45075  Biso   1.000  O
  O39      1.0000 0.52709  0.93739  0.45167  Biso   1.000  O
  C141     1.0000 0.90818  0.97197  0.31095  Biso   1.000  C
  C142     1.0000 0.85409  0.95382  0.30940  Biso   1.000  C
  C143     1.0000 0.83130  0.94524  0.26690  Biso   1.000  C
  H92      1.0000 0.84890  0.95120  0.23910  Biso   1.000  H
  C144     1.0000 0.78053  0.92711  0.26568  Biso   1.000  C
  H93      1.0000 0.76470  0.92130  0.23700  Biso   1.000  H
  C145     1.0000 0.75496  0.91813  0.30627  Biso   1.000  C
  C146     1.0000 0.77878  0.92679  0.34894  Biso   1.000  C
  H94      1.0000 0.76120  0.92060  0.37670  Biso   1.000  H
  C147     1.0000 0.82765  0.94430  0.35079  Biso   1.000  C
  H95      1.0000 0.84320  0.94980  0.37970  Biso   1.000  H
  C148     1.0000 0.55986  0.96800  0.43811  Biso   1.000  C
  C149     1.0000 0.59673  0.94986  0.40097  Biso   1.000  C
  C150     1.0000 0.59671  0.90016  0.38710  Biso   1.000  C
  H96      1.0000 0.57270  0.87800  0.39950  Biso   1.000  H
  C151     1.0000 0.63196  0.88212  0.35477  Biso   1.000  C
  H97      1.0000 0.63220  0.84790  0.34660  Biso   1.000  H
  C152     1.0000 0.66675  0.91525  0.33464  Biso   1.000  C
  C153     1.0000 0.66534  0.96630  0.34752  Biso   1.000  C
  H98      1.0000 0.68820  0.98910  0.33420  Biso   1.000  H
  C154     1.0000 0.63081  0.98309  0.37947  Biso   1.000  C
  H99      1.0000 0.62990  0.01740  0.38710  Biso   1.000  H
  C155     1.0000 0.69730  0.85232  0.27686  Biso   1.000  C
  C156     1.0000 0.73456  0.81591  0.27680  Biso   1.000  C
  H100     1.0000 0.76400  0.82040  0.29450  Biso   1.000  H
  C157     1.0000 0.95810  0.01380  0.16580  Biso   1.000  C
  H101     1.0000 0.92900  0.02320  0.18210  Biso   1.000  H
  Pd8      1.0000 0.97141  0.01630  0.99830  Biso   1.000  Pd
  N16      1.0000 0.90890  0.02340  0.04750  Biso   1.000  N
  C158     1.0000 0.90990  0.03370  0.09360  Biso   1.000  C
  H102     1.0000 0.88420  0.05100  0.10930  Biso   1.000  H
  C159     1.0000 0.95760  0.01420  0.11710  Biso   1.000  C
  O40      1.0000 0.00400  0.97160  0.04610  Biso   1.000  O
  C160     1.0000 0.86190  0.99780  0.02620  Biso   1.000  C
  H103     1.0000 0.86020  0.96300  0.03730  Biso   1.000  H
  H104     1.0000 0.83170  0.01530  0.03730  Biso   1.000  H
  N17      1.0000 0.39782  0.20417  0.80354  Biso   1.000  N
  O41      1.0000 0.47917  0.42857  0.85058  Biso   1.000  O
  O42      1.0000 0.47817  0.42913  0.77141  Biso   1.000  O
  O43      1.0000 0.51390  0.06519  0.95075  Biso   1.000  O
  O44      1.0000 0.43739  0.02709  0.95167  Biso   1.000  O
  C161     1.0000 0.47197  0.40818  0.81095  Biso   1.000  C
  C162     1.0000 0.45382  0.35409  0.80940  Biso   1.000  C
  C163     1.0000 0.44524  0.33130  0.76690  Biso   1.000  C
  H105     1.0000 0.45120  0.34890  0.73910  Biso   1.000  H
  C164     1.0000 0.42711  0.28053  0.76568  Biso   1.000  C
  H106     1.0000 0.42130  0.26470  0.73700  Biso   1.000  H
  C165     1.0000 0.41813  0.25496  0.80627  Biso   1.000  C
  C166     1.0000 0.42679  0.27878  0.84894  Biso   1.000  C
  H107     1.0000 0.42060  0.26120  0.87670  Biso   1.000  H
  C167     1.0000 0.44430  0.32765  0.85079  Biso   1.000  C
  H108     1.0000 0.44980  0.34320  0.87970  Biso   1.000  H
  C168     1.0000 0.46800  0.05986  0.93811  Biso   1.000  C
  C169     1.0000 0.44986  0.09673  0.90097  Biso   1.000  C
  C170     1.0000 0.40016  0.09671  0.88710  Biso   1.000  C
  H109     1.0000 0.37800  0.07270  0.89950  Biso   1.000  H
  C171     1.0000 0.38212  0.13196  0.85477  Biso   1.000  C
  H110     1.0000 0.34790  0.13220  0.84660  Biso   1.000  H
  C172     1.0000 0.41525  0.16675  0.83464  Biso   1.000  C
  C173     1.0000 0.46630  0.16534  0.84752  Biso   1.000  C
  H111     1.0000 0.48910  0.18820  0.83420  Biso   1.000  H
  C174     1.0000 0.48309  0.13081  0.87947  Biso   1.000  C
  H112     1.0000 0.51740  0.12990  0.88710  Biso   1.000  H
  C175     1.0000 0.35232  0.19730  0.77686  Biso   1.000  C
  C176     1.0000 0.31591  0.23456  0.77680  Biso   1.000  C
  H113     1.0000 0.32040  0.26400  0.79450  Biso   1.000  H
  C177     1.0000 0.51380  0.45810  0.66580  Biso   1.000  C
  H114     1.0000 0.52320  0.42900  0.68210  Biso   1.000  H
  Pd9      1.0000 0.51630  0.47141  0.49830  Biso   1.000  Pd
  N18      1.0000 0.52340  0.40890  0.54750  Biso   1.000  N
  C178     1.0000 0.53370  0.40990  0.59360  Biso   1.000  C
  H115     1.0000 0.55100  0.38420  0.60930  Biso   1.000  H
  C179     1.0000 0.51420  0.45760  0.61710  Biso   1.000  C
  O45      1.0000 0.47160  0.50400  0.54610  Biso   1.000  O
  C180     1.0000 0.49780  0.36190  0.52620  Biso   1.000  C
  H116     1.0000 0.46300  0.36020  0.53730  Biso   1.000  H
  H117     1.0000 0.51530  0.33170  0.53730  Biso   1.000  H
  N19      1.0000 0.60218  0.79583  0.80354  Biso   1.000  N
  O46      1.0000 0.52083  0.57143  0.85058  Biso   1.000  O
  O47      1.0000 0.52183  0.57087  0.77141  Biso   1.000  O
  O48      1.0000 0.48610  0.93481  0.95075  Biso   1.000  O
  O49      1.0000 0.56261  0.97291  0.95167  Biso   1.000  O
  C181     1.0000 0.52803  0.59182  0.81095  Biso   1.000  C
  C182     1.0000 0.54618  0.64591  0.80940  Biso   1.000  C
  C183     1.0000 0.55476  0.66870  0.76690  Biso   1.000  C
  H118     1.0000 0.54880  0.65110  0.73910  Biso   1.000  H
  C184     1.0000 0.57289  0.71947  0.76568  Biso   1.000  C
  H119     1.0000 0.57870  0.73530  0.73700  Biso   1.000  H
  C185     1.0000 0.58187  0.74504  0.80627  Biso   1.000  C
  C186     1.0000 0.57321  0.72122  0.84894  Biso   1.000  C
  H120     1.0000 0.57940  0.73880  0.87670  Biso   1.000  H
  C187     1.0000 0.55570  0.67235  0.85079  Biso   1.000  C
  H121     1.0000 0.55020  0.65680  0.87970  Biso   1.000  H
  C188     1.0000 0.53200  0.94014  0.93811  Biso   1.000  C
  C189     1.0000 0.55014  0.90327  0.90097  Biso   1.000  C
  C190     1.0000 0.59984  0.90329  0.88710  Biso   1.000  C
  H122     1.0000 0.62200  0.92730  0.89950  Biso   1.000  H
  C191     1.0000 0.61788  0.86804  0.85477  Biso   1.000  C
  H123     1.0000 0.65210  0.86780  0.84660  Biso   1.000  H
  C192     1.0000 0.58475  0.83325  0.83464  Biso   1.000  C
  C193     1.0000 0.53370  0.83466  0.84752  Biso   1.000  C
  H124     1.0000 0.51090  0.81180  0.83420  Biso   1.000  H
  C194     1.0000 0.51691  0.86919  0.87947  Biso   1.000  C
  H125     1.0000 0.48260  0.87010  0.88710  Biso   1.000  H
  C195     1.0000 0.64768  0.80270  0.77686  Biso   1.000  C
  C196     1.0000 0.68409  0.76544  0.77680  Biso   1.000  C
  H126     1.0000 0.67960  0.73600  0.79450  Biso   1.000  H
  C197     1.0000 0.48620  0.54190  0.66580  Biso   1.000  C
  H127     1.0000 0.47680  0.57100  0.68210  Biso   1.000  H
  Pd10     1.0000 0.48370  0.52859  0.49830  Biso   1.000  Pd
  N20      1.0000 0.47660  0.59110  0.54750  Biso   1.000  N
  C198     1.0000 0.46630  0.59010  0.59360  Biso   1.000  C
  H128     1.0000 0.44900  0.61580  0.60930  Biso   1.000  H
  C199     1.0000 0.48580  0.54240  0.61710  Biso   1.000  C
  O50      1.0000 0.52840  0.49600  0.54610  Biso   1.000  O
  C200     1.0000 0.50220  0.63810  0.52620  Biso   1.000  C
  H129     1.0000 0.53700  0.63980  0.53730  Biso   1.000  H
  H130     1.0000 0.48470  0.66830  0.53730  Biso   1.000  H
  N21      1.0000 0.79583  0.39782  0.80354  Biso   1.000  N
  O51      1.0000 0.57143  0.47917  0.85058  Biso   1.000  O
  O52      1.0000 0.57087  0.47817  0.77141  Biso   1.000  O
  O53      1.0000 0.93481  0.51390  0.95075  Biso   1.000  O
  O54      1.0000 0.97291  0.43739  0.95167  Biso   1.000  O
  C201     1.0000 0.59182  0.47197  0.81095  Biso   1.000  C
  C202     1.0000 0.64591  0.45382  0.80940  Biso   1.000  C
  C203     1.0000 0.66870  0.44524  0.76690  Biso   1.000  C
  H131     1.0000 0.65110  0.45120  0.73910  Biso   1.000  H
  C204     1.0000 0.71947  0.42711  0.76568  Biso   1.000  C
  H132     1.0000 0.73530  0.42130  0.73700  Biso   1.000  H
  C205     1.0000 0.74504  0.41813  0.80627  Biso   1.000  C
  C206     1.0000 0.72122  0.42679  0.84894  Biso   1.000  C
  H133     1.0000 0.73880  0.42060  0.87670  Biso   1.000  H
  C207     1.0000 0.67235  0.44430  0.85079  Biso   1.000  C
  H134     1.0000 0.65680  0.44980  0.87970  Biso   1.000  H
  C208     1.0000 0.94014  0.46800  0.93811  Biso   1.000  C
  C209     1.0000 0.90327  0.44986  0.90097  Biso   1.000  C
  C210     1.0000 0.90329  0.40016  0.88710  Biso   1.000  C
  H135     1.0000 0.92730  0.37800  0.89950  Biso   1.000  H
  C211     1.0000 0.86804  0.38212  0.85477  Biso   1.000  C
  H136     1.0000 0.86780  0.34790  0.84660  Biso   1.000  H
  C212     1.0000 0.83325  0.41525  0.83464  Biso   1.000  C
  C213     1.0000 0.83466  0.46630  0.84752  Biso   1.000  C
  H137     1.0000 0.81180  0.48910  0.83420  Biso   1.000  H
  C214     1.0000 0.86919  0.48309  0.87947  Biso   1.000  C
  H138     1.0000 0.87010  0.51740  0.88710  Biso   1.000  H
  C215     1.0000 0.80270  0.35232  0.77686  Biso   1.000  C
  C216     1.0000 0.76544  0.31591  0.77680  Biso   1.000  C
  H139     1.0000 0.73600  0.32040  0.79450  Biso   1.000  H
  C217     1.0000 0.54190  0.51380  0.66580  Biso   1.000  C
  H140     1.0000 0.57100  0.52320  0.68210  Biso   1.000  H
  Pd11     1.0000 0.52859  0.51630  0.49830  Biso   1.000  Pd
  N22      1.0000 0.59110  0.52340  0.54750  Biso   1.000  N
  C218     1.0000 0.59010  0.53370  0.59360  Biso   1.000  C
  H141     1.0000 0.61580  0.55100  0.60930  Biso   1.000  H
  C219     1.0000 0.54240  0.51420  0.61710  Biso   1.000  C
  O55      1.0000 0.49600  0.47160  0.54610  Biso   1.000  O
  C220     1.0000 0.63810  0.49780  0.52620  Biso   1.000  C
  H142     1.0000 0.63980  0.46300  0.53730  Biso   1.000  H
  H143     1.0000 0.66830  0.51530  0.53730  Biso   1.000  H
  N23      1.0000 0.20417  0.60218  0.80354  Biso   1.000  N
  O56      1.0000 0.42857  0.52083  0.85058  Biso   1.000  O
  O57      1.0000 0.42913  0.52183  0.77141  Biso   1.000  O
  O58      1.0000 0.06519  0.48610  0.95075  Biso   1.000  O
  O59      1.0000 0.02709  0.56261  0.95167  Biso   1.000  O
  C221     1.0000 0.40818  0.52803  0.81095  Biso   1.000  C
  C222     1.0000 0.35409  0.54618  0.80940  Biso   1.000  C
  C223     1.0000 0.33130  0.55476  0.76690  Biso   1.000  C
  H144     1.0000 0.34890  0.54880  0.73910  Biso   1.000  H
  C224     1.0000 0.28053  0.57289  0.76568  Biso   1.000  C
  H145     1.0000 0.26470  0.57870  0.73700  Biso   1.000  H
  C225     1.0000 0.25496  0.58187  0.80627  Biso   1.000  C
  C226     1.0000 0.27878  0.57321  0.84894  Biso   1.000  C
  H146     1.0000 0.26120  0.57940  0.87670  Biso   1.000  H
  C227     1.0000 0.32765  0.55570  0.85079  Biso   1.000  C
  H147     1.0000 0.34320  0.55020  0.87970  Biso   1.000  H
  C228     1.0000 0.05986  0.53200  0.93811  Biso   1.000  C
  C229     1.0000 0.09673  0.55014  0.90097  Biso   1.000  C
  C230     1.0000 0.09671  0.59984  0.88710  Biso   1.000  C
  H148     1.0000 0.07270  0.62200  0.89950  Biso   1.000  H
  C231     1.0000 0.13196  0.61788  0.85477  Biso   1.000  C
  H149     1.0000 0.13220  0.65210  0.84660  Biso   1.000  H
  C232     1.0000 0.16675  0.58475  0.83464  Biso   1.000  C
  C233     1.0000 0.16534  0.53370  0.84752  Biso   1.000  C
  H150     1.0000 0.18820  0.51090  0.83420  Biso   1.000  H
  C234     1.0000 0.13081  0.51691  0.87947  Biso   1.000  C
  H151     1.0000 0.12990  0.48260  0.88710  Biso   1.000  H
  C235     1.0000 0.19730  0.64768  0.77686  Biso   1.000  C
  C236     1.0000 0.23456  0.68409  0.77680  Biso   1.000  C
  H152     1.0000 0.26400  0.67960  0.79450  Biso   1.000  H
  C237     1.0000 0.45810  0.48620  0.66580  Biso   1.000  C
  H153     1.0000 0.42900  0.47680  0.68210  Biso   1.000  H
  Pd12     1.0000 0.47141  0.48370  0.49830  Biso   1.000  Pd
  N24      1.0000 0.40890  0.47660  0.54750  Biso   1.000  N
  C238     1.0000 0.40990  0.46630  0.59360  Biso   1.000  C
  H154     1.0000 0.38420  0.44900  0.60930  Biso   1.000  H
  C239     1.0000 0.45760  0.48580  0.61710  Biso   1.000  C
  O60      1.0000 0.50400  0.52840  0.54610  Biso   1.000  O
  C240     1.0000 0.36190  0.50220  0.52620  Biso   1.000  C
  H155     1.0000 0.36020  0.53700  0.53730  Biso   1.000  H
  H156     1.0000 0.33170  0.48470  0.53730  Biso   1.000  H
  N25      1.0000 0.10218  0.70417  0.69646  Biso   1.000  N
  O61      1.0000 0.02083  0.92857  0.64942  Biso   1.000  O
  O62      1.0000 0.02183  0.92913  0.72859  Biso   1.000  O
  O63      1.0000 0.98610  0.56519  0.54925  Biso   1.000  O
  O64      1.0000 0.06261  0.52709  0.54833  Biso   1.000  O
  C241     1.0000 0.02803  0.90818  0.68905  Biso   1.000  C
  C242     1.0000 0.04618  0.85409  0.69060  Biso   1.000  C
  C243     1.0000 0.05476  0.83130  0.73310  Biso   1.000  C
  H157     1.0000 0.04880  0.84890  0.76090  Biso   1.000  H
  C244     1.0000 0.07289  0.78053  0.73432  Biso   1.000  C
  H158     1.0000 0.07870  0.76470  0.76300  Biso   1.000  H
  C245     1.0000 0.08187  0.75496  0.69373  Biso   1.000  C
  C246     1.0000 0.07321  0.77878  0.65106  Biso   1.000  C
  H159     1.0000 0.07940  0.76120  0.62330  Biso   1.000  H
  C247     1.0000 0.05570  0.82765  0.64921  Biso   1.000  C
  H160     1.0000 0.05020  0.84320  0.62030  Biso   1.000  H
  C248     1.0000 0.03200  0.55986  0.56189  Biso   1.000  C
  C249     1.0000 0.05014  0.59673  0.59903  Biso   1.000  C
  C250     1.0000 0.09984  0.59671  0.61290  Biso   1.000  C
  H161     1.0000 0.12200  0.57270  0.60050  Biso   1.000  H
  C251     1.0000 0.11788  0.63196  0.64523  Biso   1.000  C
  H162     1.0000 0.15210  0.63220  0.65340  Biso   1.000  H
  C252     1.0000 0.08475  0.66675  0.66536  Biso   1.000  C
  C253     1.0000 0.03370  0.66534  0.65248  Biso   1.000  C
  H163     1.0000 0.01090  0.68820  0.66580  Biso   1.000  H
  C254     1.0000 0.01691  0.63081  0.62053  Biso   1.000  C
  H164     1.0000 0.98260  0.62990  0.61290  Biso   1.000  H
  C255     1.0000 0.14768  0.69730  0.72314  Biso   1.000  C
  C256     1.0000 0.18409  0.73456  0.72320  Biso   1.000  C
  H165     1.0000 0.17960  0.76400  0.70550  Biso   1.000  H
  C257     1.0000 0.98620  0.95810  0.83420  Biso   1.000  C
  H166     1.0000 0.97680  0.92900  0.81790  Biso   1.000  H
  Pd13     1.0000 0.98370  0.97141  0.00170  Biso   1.000  Pd
  N26      1.0000 0.97660  0.90890  0.95250  Biso   1.000  N
  C258     1.0000 0.96630  0.90990  0.90640  Biso   1.000  C
  H167     1.0000 0.94900  0.88420  0.89070  Biso   1.000  H
  C259     1.0000 0.98580  0.95760  0.88290  Biso   1.000  C
  O65      1.0000 0.02840  0.00400  0.95390  Biso   1.000  O
  C260     1.0000 0.00220  0.86190  0.97380  Biso   1.000  C
  H168     1.0000 0.03700  0.86020  0.96270  Biso   1.000  H
  H169     1.0000 0.98470  0.83170  0.96270  Biso   1.000  H
  N27      1.0000 0.89782  0.29583  0.69646  Biso   1.000  N
  O66      1.0000 0.97917  0.07143  0.64942  Biso   1.000  O
  O67      1.0000 0.97817  0.07087  0.72859  Biso   1.000  O
  O68      1.0000 0.01390  0.43481  0.54925  Biso   1.000  O
  O69      1.0000 0.93739  0.47291  0.54833  Biso   1.000  O
  C261     1.0000 0.97197  0.09182  0.68905  Biso   1.000  C
  C262     1.0000 0.95382  0.14591  0.69060  Biso   1.000  C
  C263     1.0000 0.94524  0.16870  0.73310  Biso   1.000  C
  H170     1.0000 0.95120  0.15110  0.76090  Biso   1.000  H
  C264     1.0000 0.92711  0.21947  0.73432  Biso   1.000  C
  H171     1.0000 0.92130  0.23530  0.76300  Biso   1.000  H
  C265     1.0000 0.91813  0.24504  0.69373  Biso   1.000  C
  C266     1.0000 0.92679  0.22122  0.65106  Biso   1.000  C
  H172     1.0000 0.92060  0.23880  0.62330  Biso   1.000  H
  C267     1.0000 0.94430  0.17235  0.64921  Biso   1.000  C
  H173     1.0000 0.94980  0.15680  0.62030  Biso   1.000  H
  C268     1.0000 0.96800  0.44014  0.56189  Biso   1.000  C
  C269     1.0000 0.94986  0.40327  0.59903  Biso   1.000  C
  C270     1.0000 0.90016  0.40329  0.61290  Biso   1.000  C
  H174     1.0000 0.87800  0.42730  0.60050  Biso   1.000  H
  C271     1.0000 0.88212  0.36804  0.64523  Biso   1.000  C
  H175     1.0000 0.84790  0.36780  0.65340  Biso   1.000  H
  C272     1.0000 0.91525  0.33325  0.66536  Biso   1.000  C
  C273     1.0000 0.96630  0.33466  0.65248  Biso   1.000  C
  H176     1.0000 0.98910  0.31180  0.66580  Biso   1.000  H
  C274     1.0000 0.98309  0.36919  0.62053  Biso   1.000  C
  H177     1.0000 0.01740  0.37010  0.61290  Biso   1.000  H
  C275     1.0000 0.85232  0.30270  0.72314  Biso   1.000  C
  C276     1.0000 0.81591  0.26544  0.72320  Biso   1.000  C
  H178     1.0000 0.82040  0.23600  0.70550  Biso   1.000  H
  C277     1.0000 0.01380  0.04190  0.83420  Biso   1.000  C
  H179     1.0000 0.02320  0.07100  0.81790  Biso   1.000  H
  Pd14     1.0000 0.01630  0.02859  0.00170  Biso   1.000  Pd
  N28      1.0000 0.02340  0.09110  0.95250  Biso   1.000  N
  C278     1.0000 0.03370  0.09010  0.90640  Biso   1.000  C
  H180     1.0000 0.05100  0.11580  0.89070  Biso   1.000  H
  C279     1.0000 0.01420  0.04240  0.88290  Biso   1.000  C
  O70      1.0000 0.97160  0.99600  0.95390  Biso   1.000  O
  C280     1.0000 0.99780  0.13810  0.97380  Biso   1.000  C
  H181     1.0000 0.96300  0.13980  0.96270  Biso   1.000  H
  H182     1.0000 0.01530  0.16830  0.96270  Biso   1.000  H
  N29      1.0000 0.70417  0.89782  0.69646  Biso   1.000  N
  O71      1.0000 0.92857  0.97917  0.64942  Biso   1.000  O
  O72      1.0000 0.92913  0.97817  0.72859  Biso   1.000  O
  O73      1.0000 0.56519  0.01390  0.54925  Biso   1.000  O
  O74      1.0000 0.52709  0.93739  0.54833  Biso   1.000  O
  C281     1.0000 0.90818  0.97197  0.68905  Biso   1.000  C
  C282     1.0000 0.85409  0.95382  0.69060  Biso   1.000  C
  C283     1.0000 0.83130  0.94524  0.73310  Biso   1.000  C
  H183     1.0000 0.84890  0.95120  0.76090  Biso   1.000  H
  C284     1.0000 0.78053  0.92711  0.73432  Biso   1.000  C
  H184     1.0000 0.76470  0.92130  0.76300  Biso   1.000  H
  C285     1.0000 0.75496  0.91813  0.69373  Biso   1.000  C
  C286     1.0000 0.77878  0.92679  0.65106  Biso   1.000  C
  H185     1.0000 0.76120  0.92060  0.62330  Biso   1.000  H
  C287     1.0000 0.82765  0.94430  0.64921  Biso   1.000  C
  H186     1.0000 0.84320  0.94980  0.62030  Biso   1.000  H
  C288     1.0000 0.55986  0.96800  0.56189  Biso   1.000  C
  C289     1.0000 0.59673  0.94986  0.59903  Biso   1.000  C
  C290     1.0000 0.59671  0.90016  0.61290  Biso   1.000  C
  H187     1.0000 0.57270  0.87800  0.60050  Biso   1.000  H
  C291     1.0000 0.63196  0.88212  0.64523  Biso   1.000  C
  H188     1.0000 0.63220  0.84790  0.65340  Biso   1.000  H
  C292     1.0000 0.66675  0.91525  0.66536  Biso   1.000  C
  C293     1.0000 0.66534  0.96630  0.65248  Biso   1.000  C
  H189     1.0000 0.68820  0.98910  0.66580  Biso   1.000  H
  C294     1.0000 0.63081  0.98309  0.62053  Biso   1.000  C
  H190     1.0000 0.62990  0.01740  0.61290  Biso   1.000  H
  C295     1.0000 0.69730  0.85232  0.72314  Biso   1.000  C
  C296     1.0000 0.73456  0.81591  0.72320  Biso   1.000  C
  H191     1.0000 0.76400  0.82040  0.70550  Biso   1.000  H
  C297     1.0000 0.95810  0.01380  0.83420  Biso   1.000  C
  H192     1.0000 0.92900  0.02320  0.81790  Biso   1.000  H
  Pd15     1.0000 0.97141  0.01630  0.00170  Biso   1.000  Pd
  N30      1.0000 0.90890  0.02340  0.95250  Biso   1.000  N
  C298     1.0000 0.90990  0.03370  0.90640  Biso   1.000  C
  H193     1.0000 0.88420  0.05100  0.89070  Biso   1.000  H
  C299     1.0000 0.95760  0.01420  0.88290  Biso   1.000  C
  O75      1.0000 0.00400  0.97160  0.95390  Biso   1.000  O
  C300     1.0000 0.86190  0.99780  0.97380  Biso   1.000  C
  H194     1.0000 0.86020  0.96300  0.96270  Biso   1.000  H
  H195     1.0000 0.83170  0.01530  0.96270  Biso   1.000  H
  N31      1.0000 0.29583  0.10218  0.69646  Biso   1.000  N
  O76      1.0000 0.07143  0.02083  0.64942  Biso   1.000  O
  O77      1.0000 0.07087  0.02183  0.72859  Biso   1.000  O
  O78      1.0000 0.43481  0.98610  0.54925  Biso   1.000  O
  O79      1.0000 0.47291  0.06261  0.54833  Biso   1.000  O
  C301     1.0000 0.09182  0.02803  0.68905  Biso   1.000  C
  C302     1.0000 0.14591  0.04618  0.69060  Biso   1.000  C
  C303     1.0000 0.16870  0.05476  0.73310  Biso   1.000  C
  H196     1.0000 0.15110  0.04880  0.76090  Biso   1.000  H
  C304     1.0000 0.21947  0.07289  0.73432  Biso   1.000  C
  H197     1.0000 0.23530  0.07870  0.76300  Biso   1.000  H
  C305     1.0000 0.24504  0.08187  0.69373  Biso   1.000  C
  C306     1.0000 0.22122  0.07321  0.65106  Biso   1.000  C
  H198     1.0000 0.23880  0.07940  0.62330  Biso   1.000  H
  C307     1.0000 0.17235  0.05570  0.64921  Biso   1.000  C
  H199     1.0000 0.15680  0.05020  0.62030  Biso   1.000  H
  C308     1.0000 0.44014  0.03200  0.56189  Biso   1.000  C
  C309     1.0000 0.40327  0.05014  0.59903  Biso   1.000  C
  C310     1.0000 0.40329  0.09984  0.61290  Biso   1.000  C
  H200     1.0000 0.42730  0.12200  0.60050  Biso   1.000  H
  C311     1.0000 0.36804  0.11788  0.64523  Biso   1.000  C
  H201     1.0000 0.36780  0.15210  0.65340  Biso   1.000  H
  C312     1.0000 0.33325  0.08475  0.66536  Biso   1.000  C
  C313     1.0000 0.33466  0.03370  0.65248  Biso   1.000  C
  H202     1.0000 0.31180  0.01090  0.66580  Biso   1.000  H
  C314     1.0000 0.36919  0.01691  0.62053  Biso   1.000  C
  H203     1.0000 0.37010  0.98260  0.61290  Biso   1.000  H
  C315     1.0000 0.30270  0.14768  0.72314  Biso   1.000  C
  C316     1.0000 0.26544  0.18409  0.72320  Biso   1.000  C
  H204     1.0000 0.23600  0.17960  0.70550  Biso   1.000  H
  C317     1.0000 0.04190  0.98620  0.83420  Biso   1.000  C
  H205     1.0000 0.07100  0.97680  0.81790  Biso   1.000  H
  Pd16     1.0000 0.02859  0.98370  0.00170  Biso   1.000  Pd
  N32      1.0000 0.09110  0.97660  0.95250  Biso   1.000  N
  C318     1.0000 0.09010  0.96630  0.90640  Biso   1.000  C
  H206     1.0000 0.11580  0.94900  0.89070  Biso   1.000  H
  C319     1.0000 0.04240  0.98580  0.88290  Biso   1.000  C
  O80      1.0000 0.99600  0.02840  0.95390  Biso   1.000  O
  C320     1.0000 0.13810  0.00220  0.97380  Biso   1.000  C
  H207     1.0000 0.13980  0.03700  0.96270  Biso   1.000  H
  H208     1.0000 0.16830  0.98470  0.96270  Biso   1.000  H
  Cu1      1.0000 0.50000  0.50000  0.14295  Biso   1.000  Cu
  Cu2      1.0000 0.50000  0.50000  0.23582  Biso   1.000  Cu
  N33      1.0000 0.50000  0.50000  0.31006  Biso   1.000  N
  C321     1.0000 0.50000  0.50000  0.40880  Biso   1.000  C
  Cu3      1.0000 0.00000  0.00000  0.35705  Biso   1.000  Cu
  Cu4      1.0000 0.00000  0.00000  0.26418  Biso   1.000  Cu
  N34      1.0000 0.00000  0.00000  0.18994  Biso   1.000  N
  C322     1.0000 0.00000  0.00000  0.09120  Biso   1.000  C
  Cu5      1.0000 0.50000  0.50000  0.85705  Biso   1.000  Cu
  Cu6      1.0000 0.50000  0.50000  0.76418  Biso   1.000  Cu
  N35      1.0000 0.50000  0.50000  0.68994  Biso   1.000  N
  C323     1.0000 0.50000  0.50000  0.59120  Biso   1.000  C
  Cu7      1.0000 0.00000  0.00000  0.64295  Biso   1.000  Cu
  Cu8      1.0000 0.00000  0.00000  0.73582  Biso   1.000  Cu
  N36      1.0000 0.00000  0.00000  0.81006  Biso   1.000  N
  C324     1.0000 0.00000  0.00000  0.90880  Biso   1.000  C
  Cu9      1.0000 0.45521  0.97736  0.00000  Biso   1.000  Cu
  Cu10     1.0000 0.54479  0.02264  0.00000  Biso   1.000  Cu
  Cu11     1.0000 0.02264  0.45521  0.00000  Biso   1.000  Cu
  Cu12     1.0000 0.97736  0.54479  0.00000  Biso   1.000  Cu
  Cu13     1.0000 0.04479  0.47736  0.50000  Biso   1.000  Cu
  Cu14     1.0000 0.95521  0.52264  0.50000  Biso   1.000  Cu
  Cu15     1.0000 0.47736  0.95521  0.50000  Biso   1.000  Cu
  Cu16     1.0000 0.52264  0.04479  0.50000  Biso   1.000  Cu
  C325     1.0000 0.72790  0.77210  0.25000  Biso   1.000  C
  H209     1.0000 0.75290  0.74710  0.25000  Biso   1.000  H
  C326     1.0000 0.65383  0.84617  0.25000  Biso   1.000  C
  H210     1.0000 0.62880  0.87120  0.25000  Biso   1.000  H
  C327     1.0000 0.27210  0.22790  0.25000  Biso   1.000  C
  H211     1.0000 0.24710  0.25290  0.25000  Biso   1.000  H
  C328     1.0000 0.34617  0.15383  0.25000  Biso   1.000  C
  H212     1.0000 0.37120  0.12880  0.25000  Biso   1.000  H
  C329     1.0000 0.22790  0.72790  0.25000  Biso   1.000  C
  H213     1.0000 0.25290  0.75290  0.25000  Biso   1.000  H
  C330     1.0000 0.15383  0.65383  0.25000  Biso   1.000  C
  H214     1.0000 0.12880  0.62880  0.25000  Biso   1.000  H
  C331     1.0000 0.77210  0.27210  0.25000  Biso   1.000  C
  H215     1.0000 0.74710  0.24710  0.25000  Biso   1.000  H
  C332     1.0000 0.84617  0.34617  0.25000  Biso   1.000  C
  H216     1.0000 0.87120  0.37120  0.25000  Biso   1.000  H
  C333     1.0000 0.27210  0.22790  0.75000  Biso   1.000  C
  H217     1.0000 0.24710  0.25290  0.75000  Biso   1.000  H
  C334     1.0000 0.34617  0.15383  0.75000  Biso   1.000  C
  H218     1.0000 0.37120  0.12880  0.75000  Biso   1.000  H
  C335     1.0000 0.72790  0.77210  0.75000  Biso   1.000  C
  H219     1.0000 0.75290  0.74710  0.75000  Biso   1.000  H
  C336     1.0000 0.65383  0.84617  0.75000  Biso   1.000  C
  H220     1.0000 0.62880  0.87120  0.75000  Biso   1.000  H
  C337     1.0000 0.77210  0.27210  0.75000  Biso   1.000  C
  H221     1.0000 0.74710  0.24710  0.75000  Biso   1.000  H
  C338     1.0000 0.84617  0.34617  0.75000  Biso   1.000  C
  H222     1.0000 0.87120  0.37120  0.75000  Biso   1.000  H
  C339     1.0000 0.22790  0.72790  0.75000  Biso   1.000  C
  H223     1.0000 0.25290  0.75290  0.75000  Biso   1.000  H
  C340     1.0000 0.15383  0.65383  0.75000  Biso   1.000  C
  H224     1.0000 0.12880  0.62880  0.75000  Biso   1.000  H
