data_image0
_cell_length_a       26.47
_cell_length_b       26.47
_cell_length_c       27.42
_cell_angle_alpha    90
_cell_angle_beta     90
_cell_angle_gamma    90

_symmetry_space_group_name_H-M    "P 1"
_symmetry_int_tables_number       1

loop_
  _symmetry_equiv_pos_as_xyz
  'x, y, z'

loop_
  _atom_site_label
  _atom_site_occupancy
  _atom_site_fract_x
  _atom_site_fract_y
  _atom_site_fract_z
  _atom_site_thermal_displace_type
  _atom_site_B_iso_or_equiv
  _atom_site_type_symbol
  N1       1.0000 0.61278  0.78969  0.19051  Biso   1.000  N
  O1       1.0000 0.52507  0.57037  0.13673  Biso   1.000  O
  O2       1.0000 0.52686  0.56797  0.21787  Biso   1.000  O
  O3       1.0000 0.48882  0.93467  0.05034  Biso   1.000  O
  O4       1.0000 0.56371  0.97479  0.05004  Biso   1.000  O
  C1       1.0000 0.53341  0.58947  0.17752  Biso   1.000  C
  C2       1.0000 0.55348  0.64234  0.17997  Biso   1.000  C
  C3       1.0000 0.56344  0.66367  0.22524  Biso   1.000  C
  H1       1.0000 0.55730  0.64530  0.25350  Biso   1.000  H
  C4       1.0000 0.58267  0.71248  0.22817  Biso   1.000  C
  H2       1.0000 0.58930  0.72670  0.25850  Biso   1.000  H
  C5       1.0000 0.59191  0.73985  0.18664  Biso   1.000  C
  C6       1.0000 0.58203  0.71873  0.14190  Biso   1.000  C
  H3       1.0000 0.58860  0.73710  0.11370  Biso   1.000  H
  C7       1.0000 0.56236  0.67023  0.13851  Biso   1.000  C
  H4       1.0000 0.55520  0.65650  0.10810  Biso   1.000  H
  C8       1.0000 0.53402  0.94044  0.06389  Biso   1.000  C
  C9       1.0000 0.55475  0.90239  0.09898  Biso   1.000  C
  C10      1.0000 0.60576  0.90205  0.11171  Biso   1.000  C
  H5       1.0000 0.62720  0.92660  0.09900  Biso   1.000  H
  C11      1.0000 0.62476  0.86599  0.14268  Biso   1.000  C
  H6       1.0000 0.65880  0.86660  0.15090  Biso   1.000  H
  C12      1.0000 0.59369  0.82850  0.16194  Biso   1.000  C
  C13      1.0000 0.54177  0.83038  0.15076  Biso   1.000  C
  H7       1.0000 0.51980  0.80710  0.16480  Biso   1.000  H
  C14      1.0000 0.52335  0.86600  0.11948  Biso   1.000  C
  H8       1.0000 0.48920  0.86590  0.11170  Biso   1.000  H
  C15      1.0000 0.65643  0.79586  0.22082  Biso   1.000  C
  C16      1.0000 0.69302  0.75955  0.22060  Biso   1.000  C
  H9       1.0000 0.68960  0.73130  0.20070  Biso   1.000  H
  C17      1.0000 0.48810  0.54050  0.32850  Biso   1.000  C
  H10      1.0000 0.47980  0.56990  0.31190  Biso   1.000  H
  N2       1.0000 0.47320  0.58410  0.45220  Biso   1.000  N
  C18      1.0000 0.47810  0.58990  0.40420  Biso   1.000  C
  H11      1.0000 0.47590  0.62090  0.38840  Biso   1.000  H
  C19      1.0000 0.48760  0.54110  0.37850  Biso   1.000  C
  O5       1.0000 0.51770  0.48150  0.45180  Biso   1.000  O
  C20      1.0000 0.44820  0.62970  0.47310  Biso   1.000  C
  H12      1.0000 0.46560  0.65970  0.46150  Biso   1.000  H
  H13      1.0000 0.41360  0.63120  0.46150  Biso   1.000  H
  C21      1.0000 0.47840  0.54700  0.02800  Biso   1.000  C
  H14      1.0000 0.49800  0.57550  0.03980  Biso   1.000  H
  H15      1.0000 0.44410  0.55070  0.03980  Biso   1.000  H
  C22      1.0000 0.36650  0.92460  0.95160  Biso   1.000  C
  H16      1.0000 0.39140  0.90570  0.93320  Biso   1.000  H
  H17      1.0000 0.36150  0.95680  0.93540  Biso   1.000  H
  C23      1.0000 0.31740  0.89570  0.95180  Biso   1.000  C
  H18      1.0000 0.29280  0.91470  0.93300  Biso   1.000  H
  H19      1.0000 0.32270  0.86380  0.93520  Biso   1.000  H
  H20      1.0000 0.40940  0.87210  0.02850  Biso   1.000  H
  H21      1.0000 0.33870  0.83060  0.97140  Biso   1.000  H
  C24      1.0000 0.47900  0.45250  0.02840  Biso   1.000  C
  H22      1.0000 0.44480  0.44830  0.04030  Biso   1.000  H
  H23      1.0000 0.49900  0.42440  0.04030  Biso   1.000  H
  H24      1.0000 0.34070  0.98830  0.97150  Biso   1.000  H
  H25      1.0000 0.26820  0.94760  0.02870  Biso   1.000  H
  N3       1.0000 0.38722  0.21031  0.19051  Biso   1.000  N
  O6       1.0000 0.47493  0.42963  0.13673  Biso   1.000  O
  O7       1.0000 0.47314  0.43203  0.21787  Biso   1.000  O
  O8       1.0000 0.51118  0.06533  0.05034  Biso   1.000  O
  O9       1.0000 0.43629  0.02521  0.05004  Biso   1.000  O
  C25      1.0000 0.46659  0.41053  0.17752  Biso   1.000  C
  C26      1.0000 0.44652  0.35766  0.17997  Biso   1.000  C
  C27      1.0000 0.43656  0.33633  0.22524  Biso   1.000  C
  H26      1.0000 0.44270  0.35470  0.25350  Biso   1.000  H
  C28      1.0000 0.41733  0.28752  0.22817  Biso   1.000  C
  H27      1.0000 0.41070  0.27330  0.25850  Biso   1.000  H
  C29      1.0000 0.40809  0.26015  0.18664  Biso   1.000  C
  C30      1.0000 0.41797  0.28127  0.14190  Biso   1.000  C
  H28      1.0000 0.41140  0.26290  0.11370  Biso   1.000  H
  C31      1.0000 0.43764  0.32977  0.13851  Biso   1.000  C
  H29      1.0000 0.44480  0.34350  0.10810  Biso   1.000  H
  C32      1.0000 0.46598  0.05956  0.06389  Biso   1.000  C
  C33      1.0000 0.44525  0.09761  0.09898  Biso   1.000  C
  C34      1.0000 0.39424  0.09795  0.11171  Biso   1.000  C
  H30      1.0000 0.37280  0.07340  0.09900  Biso   1.000  H
  C35      1.0000 0.37524  0.13401  0.14268  Biso   1.000  C
  H31      1.0000 0.34120  0.13340  0.15090  Biso   1.000  H
  C36      1.0000 0.40631  0.17150  0.16194  Biso   1.000  C
  C37      1.0000 0.45823  0.16962  0.15076  Biso   1.000  C
  H32      1.0000 0.48020  0.19290  0.16480  Biso   1.000  H
  C38      1.0000 0.47665  0.13400  0.11948  Biso   1.000  C
  H33      1.0000 0.51080  0.13410  0.11170  Biso   1.000  H
  C39      1.0000 0.34357  0.20414  0.22082  Biso   1.000  C
  C40      1.0000 0.30698  0.24045  0.22060  Biso   1.000  C
  H34      1.0000 0.31040  0.26870  0.20070  Biso   1.000  H
  C41      1.0000 0.51190  0.45950  0.32850  Biso   1.000  C
  H35      1.0000 0.52020  0.43010  0.31190  Biso   1.000  H
  N4       1.0000 0.52680  0.41590  0.45220  Biso   1.000  N
  C42      1.0000 0.52190  0.41010  0.40420  Biso   1.000  C
  H36      1.0000 0.52410  0.37910  0.38840  Biso   1.000  H
  C43      1.0000 0.51240  0.45890  0.37850  Biso   1.000  C
  O10      1.0000 0.48230  0.51850  0.45180  Biso   1.000  O
  C44      1.0000 0.55180  0.37030  0.47310  Biso   1.000  C
  H37      1.0000 0.53440  0.34030  0.46150  Biso   1.000  H
  H38      1.0000 0.58640  0.36880  0.46150  Biso   1.000  H
  C45      1.0000 0.52160  0.45300  0.02800  Biso   1.000  C
  H39      1.0000 0.50200  0.42450  0.03980  Biso   1.000  H
  H40      1.0000 0.55590  0.44930  0.03980  Biso   1.000  H
  C46      1.0000 0.63350  0.07540  0.95160  Biso   1.000  C
  H41      1.0000 0.60860  0.09430  0.93320  Biso   1.000  H
  H42      1.0000 0.63850  0.04320  0.93540  Biso   1.000  H
  C47      1.0000 0.68260  0.10430  0.95180  Biso   1.000  C
  H43      1.0000 0.70720  0.08530  0.93300  Biso   1.000  H
  H44      1.0000 0.67730  0.13620  0.93520  Biso   1.000  H
  H45      1.0000 0.59060  0.12790  0.02850  Biso   1.000  H
  H46      1.0000 0.66130  0.16940  0.97140  Biso   1.000  H
  C48      1.0000 0.52100  0.54750  0.02840  Biso   1.000  C
  H47      1.0000 0.55520  0.55170  0.04030  Biso   1.000  H
  H48      1.0000 0.50100  0.57560  0.04030  Biso   1.000  H
  H49      1.0000 0.65930  0.01170  0.97150  Biso   1.000  H
  H50      1.0000 0.73180  0.05240  0.02870  Biso   1.000  H
  N5       1.0000 0.21031  0.61278  0.19051  Biso   1.000  N
  O11      1.0000 0.42963  0.52507  0.13673  Biso   1.000  O
  O12      1.0000 0.43203  0.52686  0.21787  Biso   1.000  O
  O13      1.0000 0.06533  0.48882  0.05034  Biso   1.000  O
  O14      1.0000 0.02521  0.56371  0.05004  Biso   1.000  O
  C49      1.0000 0.41053  0.53341  0.17752  Biso   1.000  C
  C50      1.0000 0.35766  0.55348  0.17997  Biso   1.000  C
  C51      1.0000 0.33633  0.56344  0.22524  Biso   1.000  C
  H51      1.0000 0.35470  0.55730  0.25350  Biso   1.000  H
  C52      1.0000 0.28752  0.58267  0.22817  Biso   1.000  C
  H52      1.0000 0.27330  0.58930  0.25850  Biso   1.000  H
  C53      1.0000 0.26015  0.59191  0.18664  Biso   1.000  C
  C54      1.0000 0.28127  0.58203  0.14190  Biso   1.000  C
  H53      1.0000 0.26290  0.58860  0.11370  Biso   1.000  H
  C55      1.0000 0.32977  0.56236  0.13851  Biso   1.000  C
  H54      1.0000 0.34350  0.55520  0.10810  Biso   1.000  H
  C56      1.0000 0.05956  0.53402  0.06389  Biso   1.000  C
  C57      1.0000 0.09761  0.55475  0.09898  Biso   1.000  C
  C58      1.0000 0.09795  0.60576  0.11171  Biso   1.000  C
  H55      1.0000 0.07340  0.62720  0.09900  Biso   1.000  H
  C59      1.0000 0.13401  0.62476  0.14268  Biso   1.000  C
  H56      1.0000 0.13340  0.65880  0.15090  Biso   1.000  H
  C60      1.0000 0.17150  0.59369  0.16194  Biso   1.000  C
  C61      1.0000 0.16962  0.54177  0.15076  Biso   1.000  C
  H57      1.0000 0.19290  0.51980  0.16480  Biso   1.000  H
  C62      1.0000 0.13400  0.52335  0.11948  Biso   1.000  C
  H58      1.0000 0.13410  0.48920  0.11170  Biso   1.000  H
  C63      1.0000 0.20414  0.65643  0.22082  Biso   1.000  C
  C64      1.0000 0.24045  0.69302  0.22060  Biso   1.000  C
  H59      1.0000 0.26870  0.68960  0.20070  Biso   1.000  H
  C65      1.0000 0.45950  0.48810  0.32850  Biso   1.000  C
  H60      1.0000 0.43010  0.47980  0.31190  Biso   1.000  H
  N6       1.0000 0.41590  0.47320  0.45220  Biso   1.000  N
  C66      1.0000 0.41010  0.47810  0.40420  Biso   1.000  C
  H61      1.0000 0.37910  0.47590  0.38840  Biso   1.000  H
  C67      1.0000 0.45890  0.48760  0.37850  Biso   1.000  C
  O15      1.0000 0.51850  0.51770  0.45180  Biso   1.000  O
  C68      1.0000 0.37030  0.44820  0.47310  Biso   1.000  C
  H62      1.0000 0.34030  0.46560  0.46150  Biso   1.000  H
  H63      1.0000 0.36880  0.41360  0.46150  Biso   1.000  H
  C69      1.0000 0.45300  0.47840  0.02800  Biso   1.000  C
  H64      1.0000 0.42450  0.49800  0.03980  Biso   1.000  H
  H65      1.0000 0.44930  0.44410  0.03980  Biso   1.000  H
  C70      1.0000 0.07540  0.36650  0.95160  Biso   1.000  C
  H66      1.0000 0.09430  0.39140  0.93320  Biso   1.000  H
  H67      1.0000 0.04320  0.36150  0.93540  Biso   1.000  H
  C71      1.0000 0.10430  0.31740  0.95180  Biso   1.000  C
  H68      1.0000 0.08530  0.29280  0.93300  Biso   1.000  H
  H69      1.0000 0.13620  0.32270  0.93520  Biso   1.000  H
  H70      1.0000 0.12790  0.40940  0.02850  Biso   1.000  H
  H71      1.0000 0.16940  0.33870  0.97140  Biso   1.000  H
  C72      1.0000 0.54750  0.47900  0.02840  Biso   1.000  C
  H72      1.0000 0.55170  0.44480  0.04030  Biso   1.000  H
  H73      1.0000 0.57560  0.49900  0.04030  Biso   1.000  H
  H74      1.0000 0.01170  0.34070  0.97150  Biso   1.000  H
  H75      1.0000 0.05240  0.26820  0.02870  Biso   1.000  H
  N7       1.0000 0.78969  0.38722  0.19051  Biso   1.000  N
  O16      1.0000 0.57037  0.47493  0.13673  Biso   1.000  O
  O17      1.0000 0.56797  0.47314  0.21787  Biso   1.000  O
  O18      1.0000 0.93467  0.51118  0.05034  Biso   1.000  O
  O19      1.0000 0.97479  0.43629  0.05004  Biso   1.000  O
  C73      1.0000 0.58947  0.46659  0.17752  Biso   1.000  C
  C74      1.0000 0.64234  0.44652  0.17997  Biso   1.000  C
  C75      1.0000 0.66367  0.43656  0.22524  Biso   1.000  C
  H76      1.0000 0.64530  0.44270  0.25350  Biso   1.000  H
  C76      1.0000 0.71248  0.41733  0.22817  Biso   1.000  C
  H77      1.0000 0.72670  0.41070  0.25850  Biso   1.000  H
  C77      1.0000 0.73985  0.40809  0.18664  Biso   1.000  C
  C78      1.0000 0.71873  0.41797  0.14190  Biso   1.000  C
  H78      1.0000 0.73710  0.41140  0.11370  Biso   1.000  H
  C79      1.0000 0.67023  0.43764  0.13851  Biso   1.000  C
  H79      1.0000 0.65650  0.44480  0.10810  Biso   1.000  H
  C80      1.0000 0.94044  0.46598  0.06389  Biso   1.000  C
  C81      1.0000 0.90239  0.44525  0.09898  Biso   1.000  C
  C82      1.0000 0.90205  0.39424  0.11171  Biso   1.000  C
  H80      1.0000 0.92660  0.37280  0.09900  Biso   1.000  H
  C83      1.0000 0.86599  0.37524  0.14268  Biso   1.000  C
  H81      1.0000 0.86660  0.34120  0.15090  Biso   1.000  H
  C84      1.0000 0.82850  0.40631  0.16194  Biso   1.000  C
  C85      1.0000 0.83038  0.45823  0.15076  Biso   1.000  C
  H82      1.0000 0.80710  0.48020  0.16480  Biso   1.000  H
  C86      1.0000 0.86600  0.47665  0.11948  Biso   1.000  C
  H83      1.0000 0.86590  0.51080  0.11170  Biso   1.000  H
  C87      1.0000 0.79586  0.34357  0.22082  Biso   1.000  C
  C88      1.0000 0.75955  0.30698  0.22060  Biso   1.000  C
  H84      1.0000 0.73130  0.31040  0.20070  Biso   1.000  H
  C89      1.0000 0.54050  0.51190  0.32850  Biso   1.000  C
  H85      1.0000 0.56990  0.52020  0.31190  Biso   1.000  H
  N8       1.0000 0.58410  0.52680  0.45220  Biso   1.000  N
  C90      1.0000 0.58990  0.52190  0.40420  Biso   1.000  C
  H86      1.0000 0.62090  0.52410  0.38840  Biso   1.000  H
  C91      1.0000 0.54110  0.51240  0.37850  Biso   1.000  C
  O20      1.0000 0.48150  0.48230  0.45180  Biso   1.000  O
  C92      1.0000 0.62970  0.55180  0.47310  Biso   1.000  C
  H87      1.0000 0.65970  0.53440  0.46150  Biso   1.000  H
  H88      1.0000 0.63120  0.58640  0.46150  Biso   1.000  H
  C93      1.0000 0.54700  0.52160  0.02800  Biso   1.000  C
  H89      1.0000 0.57550  0.50200  0.03980  Biso   1.000  H
  H90      1.0000 0.55070  0.55590  0.03980  Biso   1.000  H
  C94      1.0000 0.92460  0.63350  0.95160  Biso   1.000  C
  H91      1.0000 0.90570  0.60860  0.93320  Biso   1.000  H
  H92      1.0000 0.95680  0.63850  0.93540  Biso   1.000  H
  C95      1.0000 0.89570  0.68260  0.95180  Biso   1.000  C
  H93      1.0000 0.91470  0.70720  0.93300  Biso   1.000  H
  H94      1.0000 0.86380  0.67730  0.93520  Biso   1.000  H
  H95      1.0000 0.87210  0.59060  0.02850  Biso   1.000  H
  H96      1.0000 0.83060  0.66130  0.97140  Biso   1.000  H
  C96      1.0000 0.45250  0.52100  0.02840  Biso   1.000  C
  H97      1.0000 0.44830  0.55520  0.04030  Biso   1.000  H
  H98      1.0000 0.42440  0.50100  0.04030  Biso   1.000  H
  H99      1.0000 0.98830  0.65930  0.97150  Biso   1.000  H
  H100     1.0000 0.94760  0.73180  0.02870  Biso   1.000  H
  N9       1.0000 0.88722  0.28969  0.30949  Biso   1.000  N
  O21      1.0000 0.97493  0.07037  0.36327  Biso   1.000  O
  O22      1.0000 0.97314  0.06797  0.28213  Biso   1.000  O
  O23      1.0000 0.01118  0.43467  0.44966  Biso   1.000  O
  O24      1.0000 0.93629  0.47479  0.44996  Biso   1.000  O
  C97      1.0000 0.96659  0.08947  0.32248  Biso   1.000  C
  C98      1.0000 0.94652  0.14234  0.32003  Biso   1.000  C
  C99      1.0000 0.93656  0.16367  0.27476  Biso   1.000  C
  H101     1.0000 0.94270  0.14530  0.24650  Biso   1.000  H
  C100     1.0000 0.91733  0.21248  0.27183  Biso   1.000  C
  H102     1.0000 0.91070  0.22670  0.24150  Biso   1.000  H
  C101     1.0000 0.90809  0.23985  0.31336  Biso   1.000  C
  C102     1.0000 0.91797  0.21873  0.35810  Biso   1.000  C
  H103     1.0000 0.91140  0.23710  0.38630  Biso   1.000  H
  C103     1.0000 0.93764  0.17023  0.36149  Biso   1.000  C
  H104     1.0000 0.94480  0.15650  0.39190  Biso   1.000  H
  C104     1.0000 0.96598  0.44044  0.43611  Biso   1.000  C
  C105     1.0000 0.94525  0.40239  0.40102  Biso   1.000  C
  C106     1.0000 0.89424  0.40205  0.38829  Biso   1.000  C
  H105     1.0000 0.87280  0.42660  0.40100  Biso   1.000  H
  C107     1.0000 0.87524  0.36599  0.35732  Biso   1.000  C
  H106     1.0000 0.84120  0.36660  0.34910  Biso   1.000  H
  C108     1.0000 0.90631  0.32850  0.33806  Biso   1.000  C
  C109     1.0000 0.95823  0.33038  0.34924  Biso   1.000  C
  H107     1.0000 0.98020  0.30710  0.33520  Biso   1.000  H
  C110     1.0000 0.97665  0.36600  0.38052  Biso   1.000  C
  H108     1.0000 0.01080  0.36590  0.38830  Biso   1.000  H
  C111     1.0000 0.84357  0.29586  0.27918  Biso   1.000  C
  C112     1.0000 0.80698  0.25955  0.27940  Biso   1.000  C
  H109     1.0000 0.81040  0.23130  0.29930  Biso   1.000  H
  C113     1.0000 0.01190  0.04050  0.17150  Biso   1.000  C
  H110     1.0000 0.02020  0.06990  0.18810  Biso   1.000  H
  N10      1.0000 0.02680  0.08410  0.04780  Biso   1.000  N
  C114     1.0000 0.02190  0.08990  0.09580  Biso   1.000  C
  H111     1.0000 0.02410  0.12090  0.11160  Biso   1.000  H
  C115     1.0000 0.01240  0.04110  0.12150  Biso   1.000  C
  O25      1.0000 0.98230  0.98150  0.04820  Biso   1.000  O
  C116     1.0000 0.05180  0.12970  0.02690  Biso   1.000  C
  H112     1.0000 0.03440  0.15970  0.03850  Biso   1.000  H
  H113     1.0000 0.08640  0.13120  0.03850  Biso   1.000  H
  C117     1.0000 0.02160  0.04700  0.47200  Biso   1.000  C
  H114     1.0000 0.00200  0.07550  0.46020  Biso   1.000  H
  H115     1.0000 0.05590  0.05070  0.46020  Biso   1.000  H
  C118     1.0000 0.13350  0.42460  0.54840  Biso   1.000  C
  H116     1.0000 0.10860  0.40570  0.56680  Biso   1.000  H
  H117     1.0000 0.13850  0.45680  0.56460  Biso   1.000  H
  C119     1.0000 0.18260  0.39570  0.54820  Biso   1.000  C
  H118     1.0000 0.20720  0.41470  0.56700  Biso   1.000  H
  H119     1.0000 0.17730  0.36380  0.56480  Biso   1.000  H
  H120     1.0000 0.09060  0.37210  0.47150  Biso   1.000  H
  H121     1.0000 0.16130  0.33060  0.52860  Biso   1.000  H
  C120     1.0000 0.02100  0.95250  0.47160  Biso   1.000  C
  H122     1.0000 0.05520  0.94830  0.45970  Biso   1.000  H
  H123     1.0000 0.00100  0.92440  0.45970  Biso   1.000  H
  H124     1.0000 0.15930  0.48830  0.52850  Biso   1.000  H
  H125     1.0000 0.23180  0.44760  0.47130  Biso   1.000  H
  N11      1.0000 0.11278  0.71031  0.30949  Biso   1.000  N
  O26      1.0000 0.02507  0.92963  0.36327  Biso   1.000  O
  O27      1.0000 0.02686  0.93203  0.28213  Biso   1.000  O
  O28      1.0000 0.98882  0.56533  0.44966  Biso   1.000  O
  O29      1.0000 0.06371  0.52521  0.44996  Biso   1.000  O
  C121     1.0000 0.03341  0.91053  0.32248  Biso   1.000  C
  C122     1.0000 0.05348  0.85766  0.32003  Biso   1.000  C
  C123     1.0000 0.06344  0.83633  0.27476  Biso   1.000  C
  H126     1.0000 0.05730  0.85470  0.24650  Biso   1.000  H
  C124     1.0000 0.08267  0.78752  0.27183  Biso   1.000  C
  H127     1.0000 0.08930  0.77330  0.24150  Biso   1.000  H
  C125     1.0000 0.09191  0.76015  0.31336  Biso   1.000  C
  C126     1.0000 0.08203  0.78127  0.35810  Biso   1.000  C
  H128     1.0000 0.08860  0.76290  0.38630  Biso   1.000  H
  C127     1.0000 0.06236  0.82977  0.36149  Biso   1.000  C
  H129     1.0000 0.05520  0.84350  0.39190  Biso   1.000  H
  C128     1.0000 0.03402  0.55956  0.43611  Biso   1.000  C
  C129     1.0000 0.05475  0.59761  0.40102  Biso   1.000  C
  C130     1.0000 0.10576  0.59795  0.38829  Biso   1.000  C
  H130     1.0000 0.12720  0.57340  0.40100  Biso   1.000  H
  C131     1.0000 0.12476  0.63401  0.35732  Biso   1.000  C
  H131     1.0000 0.15880  0.63340  0.34910  Biso   1.000  H
  C132     1.0000 0.09369  0.67150  0.33806  Biso   1.000  C
  C133     1.0000 0.04177  0.66962  0.34924  Biso   1.000  C
  H132     1.0000 0.01980  0.69290  0.33520  Biso   1.000  H
  C134     1.0000 0.02335  0.63400  0.38052  Biso   1.000  C
  H133     1.0000 0.98920  0.63410  0.38830  Biso   1.000  H
  C135     1.0000 0.15643  0.70414  0.27918  Biso   1.000  C
  C136     1.0000 0.19302  0.74045  0.27940  Biso   1.000  C
  H134     1.0000 0.18960  0.76870  0.29930  Biso   1.000  H
  C137     1.0000 0.98810  0.95950  0.17150  Biso   1.000  C
  H135     1.0000 0.97980  0.93010  0.18810  Biso   1.000  H
  N12      1.0000 0.97320  0.91590  0.04780  Biso   1.000  N
  C138     1.0000 0.97810  0.91010  0.09580  Biso   1.000  C
  H136     1.0000 0.97590  0.87910  0.11160  Biso   1.000  H
  C139     1.0000 0.98760  0.95890  0.12150  Biso   1.000  C
  O30      1.0000 0.01770  0.01850  0.04820  Biso   1.000  O
  C140     1.0000 0.94820  0.87030  0.02690  Biso   1.000  C
  H137     1.0000 0.96560  0.84030  0.03850  Biso   1.000  H
  H138     1.0000 0.91360  0.86880  0.03850  Biso   1.000  H
  C141     1.0000 0.97840  0.95300  0.47200  Biso   1.000  C
  H139     1.0000 0.99800  0.92450  0.46020  Biso   1.000  H
  H140     1.0000 0.94410  0.94930  0.46020  Biso   1.000  H
  C142     1.0000 0.86650  0.57540  0.54840  Biso   1.000  C
  H141     1.0000 0.89140  0.59430  0.56680  Biso   1.000  H
  H142     1.0000 0.86150  0.54320  0.56460  Biso   1.000  H
  C143     1.0000 0.81740  0.60430  0.54820  Biso   1.000  C
  H143     1.0000 0.79280  0.58530  0.56700  Biso   1.000  H
  H144     1.0000 0.82270  0.63620  0.56480  Biso   1.000  H
  H145     1.0000 0.90940  0.62790  0.47150  Biso   1.000  H
  H146     1.0000 0.83870  0.66940  0.52860  Biso   1.000  H
  C144     1.0000 0.97900  0.04750  0.47160  Biso   1.000  C
  H147     1.0000 0.94480  0.05170  0.45970  Biso   1.000  H
  H148     1.0000 0.99900  0.07560  0.45970  Biso   1.000  H
  H149     1.0000 0.84070  0.51170  0.52850  Biso   1.000  H
  H150     1.0000 0.76820  0.55240  0.47130  Biso   1.000  H
  N13      1.0000 0.28969  0.11278  0.30949  Biso   1.000  N
  O31      1.0000 0.07037  0.02507  0.36327  Biso   1.000  O
  O32      1.0000 0.06797  0.02686  0.28213  Biso   1.000  O
  O33      1.0000 0.43467  0.98882  0.44966  Biso   1.000  O
  O34      1.0000 0.47479  0.06371  0.44996  Biso   1.000  O
  C145     1.0000 0.08947  0.03341  0.32248  Biso   1.000  C
  C146     1.0000 0.14234  0.05348  0.32003  Biso   1.000  C
  C147     1.0000 0.16367  0.06344  0.27476  Biso   1.000  C
  H151     1.0000 0.14530  0.05730  0.24650  Biso   1.000  H
  C148     1.0000 0.21248  0.08267  0.27183  Biso   1.000  C
  H152     1.0000 0.22670  0.08930  0.24150  Biso   1.000  H
  C149     1.0000 0.23985  0.09191  0.31336  Biso   1.000  C
  C150     1.0000 0.21873  0.08203  0.35810  Biso   1.000  C
  H153     1.0000 0.23710  0.08860  0.38630  Biso   1.000  H
  C151     1.0000 0.17023  0.06236  0.36149  Biso   1.000  C
  H154     1.0000 0.15650  0.05520  0.39190  Biso   1.000  H
  C152     1.0000 0.44044  0.03402  0.43611  Biso   1.000  C
  C153     1.0000 0.40239  0.05475  0.40102  Biso   1.000  C
  C154     1.0000 0.40205  0.10576  0.38829  Biso   1.000  C
  H155     1.0000 0.42660  0.12720  0.40100  Biso   1.000  H
  C155     1.0000 0.36599  0.12476  0.35732  Biso   1.000  C
  H156     1.0000 0.36660  0.15880  0.34910  Biso   1.000  H
  C156     1.0000 0.32850  0.09369  0.33806  Biso   1.000  C
  C157     1.0000 0.33038  0.04177  0.34924  Biso   1.000  C
  H157     1.0000 0.30710  0.01980  0.33520  Biso   1.000  H
  C158     1.0000 0.36600  0.02335  0.38052  Biso   1.000  C
  H158     1.0000 0.36590  0.98920  0.38830  Biso   1.000  H
  C159     1.0000 0.29586  0.15643  0.27918  Biso   1.000  C
  C160     1.0000 0.25955  0.19302  0.27940  Biso   1.000  C
  H159     1.0000 0.23130  0.18960  0.29930  Biso   1.000  H
  C161     1.0000 0.04050  0.98810  0.17150  Biso   1.000  C
  H160     1.0000 0.06990  0.97980  0.18810  Biso   1.000  H
  N14      1.0000 0.08410  0.97320  0.04780  Biso   1.000  N
  C162     1.0000 0.08990  0.97810  0.09580  Biso   1.000  C
  H161     1.0000 0.12090  0.97590  0.11160  Biso   1.000  H
  C163     1.0000 0.04110  0.98760  0.12150  Biso   1.000  C
  O35      1.0000 0.98150  0.01770  0.04820  Biso   1.000  O
  C164     1.0000 0.12970  0.94820  0.02690  Biso   1.000  C
  H162     1.0000 0.15970  0.96560  0.03850  Biso   1.000  H
  H163     1.0000 0.13120  0.91360  0.03850  Biso   1.000  H
  C165     1.0000 0.04700  0.97840  0.47200  Biso   1.000  C
  H164     1.0000 0.07550  0.99800  0.46020  Biso   1.000  H
  H165     1.0000 0.05070  0.94410  0.46020  Biso   1.000  H
  C166     1.0000 0.42460  0.86650  0.54840  Biso   1.000  C
  H166     1.0000 0.40570  0.89140  0.56680  Biso   1.000  H
  H167     1.0000 0.45680  0.86150  0.56460  Biso   1.000  H
  C167     1.0000 0.39570  0.81740  0.54820  Biso   1.000  C
  H168     1.0000 0.41470  0.79280  0.56700  Biso   1.000  H
  H169     1.0000 0.36380  0.82270  0.56480  Biso   1.000  H
  H170     1.0000 0.37210  0.90940  0.47150  Biso   1.000  H
  H171     1.0000 0.33060  0.83870  0.52860  Biso   1.000  H
  C168     1.0000 0.95250  0.97900  0.47160  Biso   1.000  C
  H172     1.0000 0.94830  0.94480  0.45970  Biso   1.000  H
  H173     1.0000 0.92440  0.99900  0.45970  Biso   1.000  H
  H174     1.0000 0.48830  0.84070  0.52850  Biso   1.000  H
  H175     1.0000 0.44760  0.76820  0.47130  Biso   1.000  H
  N15      1.0000 0.71031  0.88722  0.30949  Biso   1.000  N
  O36      1.0000 0.92963  0.97493  0.36327  Biso   1.000  O
  O37      1.0000 0.93203  0.97314  0.28213  Biso   1.000  O
  O38      1.0000 0.56533  0.01118  0.44966  Biso   1.000  O
  O39      1.0000 0.52521  0.93629  0.44996  Biso   1.000  O
  C169     1.0000 0.91053  0.96659  0.32248  Biso   1.000  C
  C170     1.0000 0.85766  0.94652  0.32003  Biso   1.000  C
  C171     1.0000 0.83633  0.93656  0.27476  Biso   1.000  C
  H176     1.0000 0.85470  0.94270  0.24650  Biso   1.000  H
  C172     1.0000 0.78752  0.91733  0.27183  Biso   1.000  C
  H177     1.0000 0.77330  0.91070  0.24150  Biso   1.000  H
  C173     1.0000 0.76015  0.90809  0.31336  Biso   1.000  C
  C174     1.0000 0.78127  0.91797  0.35810  Biso   1.000  C
  H178     1.0000 0.76290  0.91140  0.38630  Biso   1.000  H
  C175     1.0000 0.82977  0.93764  0.36149  Biso   1.000  C
  H179     1.0000 0.84350  0.94480  0.39190  Biso   1.000  H
  C176     1.0000 0.55956  0.96598  0.43611  Biso   1.000  C
  C177     1.0000 0.59761  0.94525  0.40102  Biso   1.000  C
  C178     1.0000 0.59795  0.89424  0.38829  Biso   1.000  C
  H180     1.0000 0.57340  0.87280  0.40100  Biso   1.000  H
  C179     1.0000 0.63401  0.87524  0.35732  Biso   1.000  C
  H181     1.0000 0.63340  0.84120  0.34910  Biso   1.000  H
  C180     1.0000 0.67150  0.90631  0.33806  Biso   1.000  C
  C181     1.0000 0.66962  0.95823  0.34924  Biso   1.000  C
  H182     1.0000 0.69290  0.98020  0.33520  Biso   1.000  H
  C182     1.0000 0.63400  0.97665  0.38052  Biso   1.000  C
  H183     1.0000 0.63410  0.01080  0.38830  Biso   1.000  H
  C183     1.0000 0.70414  0.84357  0.27918  Biso   1.000  C
  C184     1.0000 0.74045  0.80698  0.27940  Biso   1.000  C
  H184     1.0000 0.76870  0.81040  0.29930  Biso   1.000  H
  C185     1.0000 0.95950  0.01190  0.17150  Biso   1.000  C
  H185     1.0000 0.93010  0.02020  0.18810  Biso   1.000  H
  N16      1.0000 0.91590  0.02680  0.04780  Biso   1.000  N
  C186     1.0000 0.91010  0.02190  0.09580  Biso   1.000  C
  H186     1.0000 0.87910  0.02410  0.11160  Biso   1.000  H
  C187     1.0000 0.95890  0.01240  0.12150  Biso   1.000  C
  O40      1.0000 0.01850  0.98230  0.04820  Biso   1.000  O
  C188     1.0000 0.87030  0.05180  0.02690  Biso   1.000  C
  H187     1.0000 0.84030  0.03440  0.03850  Biso   1.000  H
  H188     1.0000 0.86880  0.08640  0.03850  Biso   1.000  H
  C189     1.0000 0.95300  0.02160  0.47200  Biso   1.000  C
  H189     1.0000 0.92450  0.00200  0.46020  Biso   1.000  H
  H190     1.0000 0.94930  0.05590  0.46020  Biso   1.000  H
  C190     1.0000 0.57540  0.13350  0.54840  Biso   1.000  C
  H191     1.0000 0.59430  0.10860  0.56680  Biso   1.000  H
  H192     1.0000 0.54320  0.13850  0.56460  Biso   1.000  H
  C191     1.0000 0.60430  0.18260  0.54820  Biso   1.000  C
  H193     1.0000 0.58530  0.20720  0.56700  Biso   1.000  H
  H194     1.0000 0.63620  0.17730  0.56480  Biso   1.000  H
  H195     1.0000 0.62790  0.09060  0.47150  Biso   1.000  H
  H196     1.0000 0.66940  0.16130  0.52860  Biso   1.000  H
  C192     1.0000 0.04750  0.02100  0.47160  Biso   1.000  C
  H197     1.0000 0.05170  0.05520  0.45970  Biso   1.000  H
  H198     1.0000 0.07560  0.00100  0.45970  Biso   1.000  H
  H199     1.0000 0.51170  0.15930  0.52850  Biso   1.000  H
  H200     1.0000 0.55240  0.23180  0.47130  Biso   1.000  H
  N17      1.0000 0.38722  0.21031  0.80949  Biso   1.000  N
  O41      1.0000 0.47493  0.42963  0.86327  Biso   1.000  O
  O42      1.0000 0.47314  0.43203  0.78213  Biso   1.000  O
  O43      1.0000 0.51118  0.06533  0.94966  Biso   1.000  O
  O44      1.0000 0.43629  0.02521  0.94996  Biso   1.000  O
  C193     1.0000 0.46659  0.41053  0.82248  Biso   1.000  C
  C194     1.0000 0.44652  0.35766  0.82003  Biso   1.000  C
  C195     1.0000 0.43656  0.33633  0.77476  Biso   1.000  C
  H201     1.0000 0.44270  0.35470  0.74650  Biso   1.000  H
  C196     1.0000 0.41733  0.28752  0.77183  Biso   1.000  C
  H202     1.0000 0.41070  0.27330  0.74150  Biso   1.000  H
  C197     1.0000 0.40809  0.26015  0.81336  Biso   1.000  C
  C198     1.0000 0.41797  0.28127  0.85810  Biso   1.000  C
  H203     1.0000 0.41140  0.26290  0.88630  Biso   1.000  H
  C199     1.0000 0.43764  0.32977  0.86149  Biso   1.000  C
  H204     1.0000 0.44480  0.34350  0.89190  Biso   1.000  H
  C200     1.0000 0.46598  0.05956  0.93611  Biso   1.000  C
  C201     1.0000 0.44525  0.09761  0.90102  Biso   1.000  C
  C202     1.0000 0.39424  0.09795  0.88829  Biso   1.000  C
  H205     1.0000 0.37280  0.07340  0.90100  Biso   1.000  H
  C203     1.0000 0.37524  0.13401  0.85732  Biso   1.000  C
  H206     1.0000 0.34120  0.13340  0.84910  Biso   1.000  H
  C204     1.0000 0.40631  0.17150  0.83806  Biso   1.000  C
  C205     1.0000 0.45823  0.16962  0.84924  Biso   1.000  C
  H207     1.0000 0.48020  0.19290  0.83520  Biso   1.000  H
  C206     1.0000 0.47665  0.13400  0.88052  Biso   1.000  C
  H208     1.0000 0.51080  0.13410  0.88830  Biso   1.000  H
  C207     1.0000 0.34357  0.20414  0.77918  Biso   1.000  C
  C208     1.0000 0.30698  0.24045  0.77940  Biso   1.000  C
  H209     1.0000 0.31040  0.26870  0.79930  Biso   1.000  H
  C209     1.0000 0.51190  0.45950  0.67150  Biso   1.000  C
  H210     1.0000 0.52020  0.43010  0.68810  Biso   1.000  H
  N18      1.0000 0.52680  0.41590  0.54780  Biso   1.000  N
  C210     1.0000 0.52190  0.41010  0.59580  Biso   1.000  C
  H211     1.0000 0.52410  0.37910  0.61160  Biso   1.000  H
  C211     1.0000 0.51240  0.45890  0.62150  Biso   1.000  C
  O45      1.0000 0.48230  0.51850  0.54820  Biso   1.000  O
  C212     1.0000 0.55180  0.37030  0.52690  Biso   1.000  C
  H212     1.0000 0.53440  0.34030  0.53850  Biso   1.000  H
  H213     1.0000 0.58640  0.36880  0.53850  Biso   1.000  H
  C213     1.0000 0.52160  0.45300  0.97200  Biso   1.000  C
  H214     1.0000 0.50200  0.42450  0.96020  Biso   1.000  H
  H215     1.0000 0.55590  0.44930  0.96020  Biso   1.000  H
  C214     1.0000 0.63350  0.07540  0.04840  Biso   1.000  C
  H216     1.0000 0.60860  0.09430  0.06680  Biso   1.000  H
  H217     1.0000 0.63850  0.04320  0.06460  Biso   1.000  H
  C215     1.0000 0.68260  0.10430  0.04820  Biso   1.000  C
  H218     1.0000 0.70720  0.08530  0.06700  Biso   1.000  H
  H219     1.0000 0.67730  0.13620  0.06480  Biso   1.000  H
  H220     1.0000 0.59060  0.12790  0.97150  Biso   1.000  H
  H221     1.0000 0.66130  0.16940  0.02860  Biso   1.000  H
  C216     1.0000 0.52100  0.54750  0.97160  Biso   1.000  C
  H222     1.0000 0.55520  0.55170  0.95970  Biso   1.000  H
  H223     1.0000 0.50100  0.57560  0.95970  Biso   1.000  H
  H224     1.0000 0.65930  0.01170  0.02850  Biso   1.000  H
  H225     1.0000 0.73180  0.05240  0.97130  Biso   1.000  H
  N19      1.0000 0.61278  0.78969  0.80949  Biso   1.000  N
  O46      1.0000 0.52507  0.57037  0.86327  Biso   1.000  O
  O47      1.0000 0.52686  0.56797  0.78213  Biso   1.000  O
  O48      1.0000 0.48882  0.93467  0.94966  Biso   1.000  O
  O49      1.0000 0.56371  0.97479  0.94996  Biso   1.000  O
  C217     1.0000 0.53341  0.58947  0.82248  Biso   1.000  C
  C218     1.0000 0.55348  0.64234  0.82003  Biso   1.000  C
  C219     1.0000 0.56344  0.66367  0.77476  Biso   1.000  C
  H226     1.0000 0.55730  0.64530  0.74650  Biso   1.000  H
  C220     1.0000 0.58267  0.71248  0.77183  Biso   1.000  C
  H227     1.0000 0.58930  0.72670  0.74150  Biso   1.000  H
  C221     1.0000 0.59191  0.73985  0.81336  Biso   1.000  C
  C222     1.0000 0.58203  0.71873  0.85810  Biso   1.000  C
  H228     1.0000 0.58860  0.73710  0.88630  Biso   1.000  H
  C223     1.0000 0.56236  0.67023  0.86149  Biso   1.000  C
  H229     1.0000 0.55520  0.65650  0.89190  Biso   1.000  H
  C224     1.0000 0.53402  0.94044  0.93611  Biso   1.000  C
  C225     1.0000 0.55475  0.90239  0.90102  Biso   1.000  C
  C226     1.0000 0.60576  0.90205  0.88829  Biso   1.000  C
  H230     1.0000 0.62720  0.92660  0.90100  Biso   1.000  H
  C227     1.0000 0.62476  0.86599  0.85732  Biso   1.000  C
  H231     1.0000 0.65880  0.86660  0.84910  Biso   1.000  H
  C228     1.0000 0.59369  0.82850  0.83806  Biso   1.000  C
  C229     1.0000 0.54177  0.83038  0.84924  Biso   1.000  C
  H232     1.0000 0.51980  0.80710  0.83520  Biso   1.000  H
  C230     1.0000 0.52335  0.86600  0.88052  Biso   1.000  C
  H233     1.0000 0.48920  0.86590  0.88830  Biso   1.000  H
  C231     1.0000 0.65643  0.79586  0.77918  Biso   1.000  C
  C232     1.0000 0.69302  0.75955  0.77940  Biso   1.000  C
  H234     1.0000 0.68960  0.73130  0.79930  Biso   1.000  H
  C233     1.0000 0.48810  0.54050  0.67150  Biso   1.000  C
  H235     1.0000 0.47980  0.56990  0.68810  Biso   1.000  H
  N20      1.0000 0.47320  0.58410  0.54780  Biso   1.000  N
  C234     1.0000 0.47810  0.58990  0.59580  Biso   1.000  C
  H236     1.0000 0.47590  0.62090  0.61160  Biso   1.000  H
  C235     1.0000 0.48760  0.54110  0.62150  Biso   1.000  C
  O50      1.0000 0.51770  0.48150  0.54820  Biso   1.000  O
  C236     1.0000 0.44820  0.62970  0.52690  Biso   1.000  C
  H237     1.0000 0.46560  0.65970  0.53850  Biso   1.000  H
  H238     1.0000 0.41360  0.63120  0.53850  Biso   1.000  H
  C237     1.0000 0.47840  0.54700  0.97200  Biso   1.000  C
  H239     1.0000 0.49800  0.57550  0.96020  Biso   1.000  H
  H240     1.0000 0.44410  0.55070  0.96020  Biso   1.000  H
  C238     1.0000 0.36650  0.92460  0.04840  Biso   1.000  C
  H241     1.0000 0.39140  0.90570  0.06680  Biso   1.000  H
  H242     1.0000 0.36150  0.95680  0.06460  Biso   1.000  H
  C239     1.0000 0.31740  0.89570  0.04820  Biso   1.000  C
  H243     1.0000 0.29280  0.91470  0.06700  Biso   1.000  H
  H244     1.0000 0.32270  0.86380  0.06480  Biso   1.000  H
  H245     1.0000 0.40940  0.87210  0.97150  Biso   1.000  H
  H246     1.0000 0.33870  0.83060  0.02860  Biso   1.000  H
  C240     1.0000 0.47900  0.45250  0.97160  Biso   1.000  C
  H247     1.0000 0.44480  0.44830  0.95970  Biso   1.000  H
  H248     1.0000 0.49900  0.42440  0.95970  Biso   1.000  H
  H249     1.0000 0.34070  0.98830  0.02850  Biso   1.000  H
  H250     1.0000 0.26820  0.94760  0.97130  Biso   1.000  H
  N21      1.0000 0.78969  0.38722  0.80949  Biso   1.000  N
  O51      1.0000 0.57037  0.47493  0.86327  Biso   1.000  O
  O52      1.0000 0.56797  0.47314  0.78213  Biso   1.000  O
  O53      1.0000 0.93467  0.51118  0.94966  Biso   1.000  O
  O54      1.0000 0.97479  0.43629  0.94996  Biso   1.000  O
  C241     1.0000 0.58947  0.46659  0.82248  Biso   1.000  C
  C242     1.0000 0.64234  0.44652  0.82003  Biso   1.000  C
  C243     1.0000 0.66367  0.43656  0.77476  Biso   1.000  C
  H251     1.0000 0.64530  0.44270  0.74650  Biso   1.000  H
  C244     1.0000 0.71248  0.41733  0.77183  Biso   1.000  C
  H252     1.0000 0.72670  0.41070  0.74150  Biso   1.000  H
  C245     1.0000 0.73985  0.40809  0.81336  Biso   1.000  C
  C246     1.0000 0.71873  0.41797  0.85810  Biso   1.000  C
  H253     1.0000 0.73710  0.41140  0.88630  Biso   1.000  H
  C247     1.0000 0.67023  0.43764  0.86149  Biso   1.000  C
  H254     1.0000 0.65650  0.44480  0.89190  Biso   1.000  H
  C248     1.0000 0.94044  0.46598  0.93611  Biso   1.000  C
  C249     1.0000 0.90239  0.44525  0.90102  Biso   1.000  C
  C250     1.0000 0.90205  0.39424  0.88829  Biso   1.000  C
  H255     1.0000 0.92660  0.37280  0.90100  Biso   1.000  H
  C251     1.0000 0.86599  0.37524  0.85732  Biso   1.000  C
  H256     1.0000 0.86660  0.34120  0.84910  Biso   1.000  H
  C252     1.0000 0.82850  0.40631  0.83806  Biso   1.000  C
  C253     1.0000 0.83038  0.45823  0.84924  Biso   1.000  C
  H257     1.0000 0.80710  0.48020  0.83520  Biso   1.000  H
  C254     1.0000 0.86600  0.47665  0.88052  Biso   1.000  C
  H258     1.0000 0.86590  0.51080  0.88830  Biso   1.000  H
  C255     1.0000 0.79586  0.34357  0.77918  Biso   1.000  C
  C256     1.0000 0.75955  0.30698  0.77940  Biso   1.000  C
  H259     1.0000 0.73130  0.31040  0.79930  Biso   1.000  H
  C257     1.0000 0.54050  0.51190  0.67150  Biso   1.000  C
  H260     1.0000 0.56990  0.52020  0.68810  Biso   1.000  H
  N22      1.0000 0.58410  0.52680  0.54780  Biso   1.000  N
  C258     1.0000 0.58990  0.52190  0.59580  Biso   1.000  C
  H261     1.0000 0.62090  0.52410  0.61160  Biso   1.000  H
  C259     1.0000 0.54110  0.51240  0.62150  Biso   1.000  C
  O55      1.0000 0.48150  0.48230  0.54820  Biso   1.000  O
  C260     1.0000 0.62970  0.55180  0.52690  Biso   1.000  C
  H262     1.0000 0.65970  0.53440  0.53850  Biso   1.000  H
  H263     1.0000 0.63120  0.58640  0.53850  Biso   1.000  H
  C261     1.0000 0.54700  0.52160  0.97200  Biso   1.000  C
  H264     1.0000 0.57550  0.50200  0.96020  Biso   1.000  H
  H265     1.0000 0.55070  0.55590  0.96020  Biso   1.000  H
  C262     1.0000 0.92460  0.63350  0.04840  Biso   1.000  C
  H266     1.0000 0.90570  0.60860  0.06680  Biso   1.000  H
  H267     1.0000 0.95680  0.63850  0.06460  Biso   1.000  H
  C263     1.0000 0.89570  0.68260  0.04820  Biso   1.000  C
  H268     1.0000 0.91470  0.70720  0.06700  Biso   1.000  H
  H269     1.0000 0.86380  0.67730  0.06480  Biso   1.000  H
  H270     1.0000 0.87210  0.59060  0.97150  Biso   1.000  H
  H271     1.0000 0.83060  0.66130  0.02860  Biso   1.000  H
  C264     1.0000 0.45250  0.52100  0.97160  Biso   1.000  C
  H272     1.0000 0.44830  0.55520  0.95970  Biso   1.000  H
  H273     1.0000 0.42440  0.50100  0.95970  Biso   1.000  H
  H274     1.0000 0.98830  0.65930  0.02850  Biso   1.000  H
  H275     1.0000 0.94760  0.73180  0.97130  Biso   1.000  H
  N23      1.0000 0.21031  0.61278  0.80949  Biso   1.000  N
  O56      1.0000 0.42963  0.52507  0.86327  Biso   1.000  O
  O57      1.0000 0.43203  0.52686  0.78213  Biso   1.000  O
  O58      1.0000 0.06533  0.48882  0.94966  Biso   1.000  O
  O59      1.0000 0.02521  0.56371  0.94996  Biso   1.000  O
  C265     1.0000 0.41053  0.53341  0.82248  Biso   1.000  C
  C266     1.0000 0.35766  0.55348  0.82003  Biso   1.000  C
  C267     1.0000 0.33633  0.56344  0.77476  Biso   1.000  C
  H276     1.0000 0.35470  0.55730  0.74650  Biso   1.000  H
  C268     1.0000 0.28752  0.58267  0.77183  Biso   1.000  C
  H277     1.0000 0.27330  0.58930  0.74150  Biso   1.000  H
  C269     1.0000 0.26015  0.59191  0.81336  Biso   1.000  C
  C270     1.0000 0.28127  0.58203  0.85810  Biso   1.000  C
  H278     1.0000 0.26290  0.58860  0.88630  Biso   1.000  H
  C271     1.0000 0.32977  0.56236  0.86149  Biso   1.000  C
  H279     1.0000 0.34350  0.55520  0.89190  Biso   1.000  H
  C272     1.0000 0.05956  0.53402  0.93611  Biso   1.000  C
  C273     1.0000 0.09761  0.55475  0.90102  Biso   1.000  C
  C274     1.0000 0.09795  0.60576  0.88829  Biso   1.000  C
  H280     1.0000 0.07340  0.62720  0.90100  Biso   1.000  H
  C275     1.0000 0.13401  0.62476  0.85732  Biso   1.000  C
  H281     1.0000 0.13340  0.65880  0.84910  Biso   1.000  H
  C276     1.0000 0.17150  0.59369  0.83806  Biso   1.000  C
  C277     1.0000 0.16962  0.54177  0.84924  Biso   1.000  C
  H282     1.0000 0.19290  0.51980  0.83520  Biso   1.000  H
  C278     1.0000 0.13400  0.52335  0.88052  Biso   1.000  C
  H283     1.0000 0.13410  0.48920  0.88830  Biso   1.000  H
  C279     1.0000 0.20414  0.65643  0.77918  Biso   1.000  C
  C280     1.0000 0.24045  0.69302  0.77940  Biso   1.000  C
  H284     1.0000 0.26870  0.68960  0.79930  Biso   1.000  H
  C281     1.0000 0.45950  0.48810  0.67150  Biso   1.000  C
  H285     1.0000 0.43010  0.47980  0.68810  Biso   1.000  H
  N24      1.0000 0.41590  0.47320  0.54780  Biso   1.000  N
  C282     1.0000 0.41010  0.47810  0.59580  Biso   1.000  C
  H286     1.0000 0.37910  0.47590  0.61160  Biso   1.000  H
  C283     1.0000 0.45890  0.48760  0.62150  Biso   1.000  C
  O60      1.0000 0.51850  0.51770  0.54820  Biso   1.000  O
  C284     1.0000 0.37030  0.44820  0.52690  Biso   1.000  C
  H287     1.0000 0.34030  0.46560  0.53850  Biso   1.000  H
  H288     1.0000 0.36880  0.41360  0.53850  Biso   1.000  H
  C285     1.0000 0.45300  0.47840  0.97200  Biso   1.000  C
  H289     1.0000 0.42450  0.49800  0.96020  Biso   1.000  H
  H290     1.0000 0.44930  0.44410  0.96020  Biso   1.000  H
  C286     1.0000 0.07540  0.36650  0.04840  Biso   1.000  C
  H291     1.0000 0.09430  0.39140  0.06680  Biso   1.000  H
  H292     1.0000 0.04320  0.36150  0.06460  Biso   1.000  H
  C287     1.0000 0.10430  0.31740  0.04820  Biso   1.000  C
  H293     1.0000 0.08530  0.29280  0.06700  Biso   1.000  H
  H294     1.0000 0.13620  0.32270  0.06480  Biso   1.000  H
  H295     1.0000 0.12790  0.40940  0.97150  Biso   1.000  H
  H296     1.0000 0.16940  0.33870  0.02860  Biso   1.000  H
  C288     1.0000 0.54750  0.47900  0.97160  Biso   1.000  C
  H297     1.0000 0.55170  0.44480  0.95970  Biso   1.000  H
  H298     1.0000 0.57560  0.49900  0.95970  Biso   1.000  H
  H299     1.0000 0.01170  0.34070  0.02850  Biso   1.000  H
  H300     1.0000 0.05240  0.26820  0.97130  Biso   1.000  H
  N25      1.0000 0.11278  0.71031  0.69051  Biso   1.000  N
  O61      1.0000 0.02507  0.92963  0.63673  Biso   1.000  O
  O62      1.0000 0.02686  0.93203  0.71787  Biso   1.000  O
  O63      1.0000 0.98882  0.56533  0.55034  Biso   1.000  O
  O64      1.0000 0.06371  0.52521  0.55004  Biso   1.000  O
  C289     1.0000 0.03341  0.91053  0.67752  Biso   1.000  C
  C290     1.0000 0.05348  0.85766  0.67997  Biso   1.000  C
  C291     1.0000 0.06344  0.83633  0.72524  Biso   1.000  C
  H301     1.0000 0.05730  0.85470  0.75350  Biso   1.000  H
  C292     1.0000 0.08267  0.78752  0.72817  Biso   1.000  C
  H302     1.0000 0.08930  0.77330  0.75850  Biso   1.000  H
  C293     1.0000 0.09191  0.76015  0.68664  Biso   1.000  C
  C294     1.0000 0.08203  0.78127  0.64190  Biso   1.000  C
  H303     1.0000 0.08860  0.76290  0.61370  Biso   1.000  H
  C295     1.0000 0.06236  0.82977  0.63851  Biso   1.000  C
  H304     1.0000 0.05520  0.84350  0.60810  Biso   1.000  H
  C296     1.0000 0.03402  0.55956  0.56389  Biso   1.000  C
  C297     1.0000 0.05475  0.59761  0.59898  Biso   1.000  C
  C298     1.0000 0.10576  0.59795  0.61171  Biso   1.000  C
  H305     1.0000 0.12720  0.57340  0.59900  Biso   1.000  H
  C299     1.0000 0.12476  0.63401  0.64268  Biso   1.000  C
  H306     1.0000 0.15880  0.63340  0.65090  Biso   1.000  H
  C300     1.0000 0.09369  0.67150  0.66194  Biso   1.000  C
  C301     1.0000 0.04177  0.66962  0.65076  Biso   1.000  C
  H307     1.0000 0.01980  0.69290  0.66480  Biso   1.000  H
  C302     1.0000 0.02335  0.63400  0.61948  Biso   1.000  C
  H308     1.0000 0.98920  0.63410  0.61170  Biso   1.000  H
  C303     1.0000 0.15643  0.70414  0.72082  Biso   1.000  C
  C304     1.0000 0.19302  0.74045  0.72060  Biso   1.000  C
  H309     1.0000 0.18960  0.76870  0.70070  Biso   1.000  H
  C305     1.0000 0.98810  0.95950  0.82850  Biso   1.000  C
  H310     1.0000 0.97980  0.93010  0.81190  Biso   1.000  H
  N26      1.0000 0.97320  0.91590  0.95220  Biso   1.000  N
  C306     1.0000 0.97810  0.91010  0.90420  Biso   1.000  C
  H311     1.0000 0.97590  0.87910  0.88840  Biso   1.000  H
  C307     1.0000 0.98760  0.95890  0.87850  Biso   1.000  C
  O65      1.0000 0.01770  0.01850  0.95180  Biso   1.000  O
  C308     1.0000 0.94820  0.87030  0.97310  Biso   1.000  C
  H312     1.0000 0.96560  0.84030  0.96150  Biso   1.000  H
  H313     1.0000 0.91360  0.86880  0.96150  Biso   1.000  H
  C309     1.0000 0.97840  0.95300  0.52800  Biso   1.000  C
  H314     1.0000 0.99800  0.92450  0.53980  Biso   1.000  H
  H315     1.0000 0.94410  0.94930  0.53980  Biso   1.000  H
  C310     1.0000 0.86650  0.57540  0.45160  Biso   1.000  C
  H316     1.0000 0.89140  0.59430  0.43320  Biso   1.000  H
  H317     1.0000 0.86150  0.54320  0.43540  Biso   1.000  H
  C311     1.0000 0.81740  0.60430  0.45180  Biso   1.000  C
  H318     1.0000 0.79280  0.58530  0.43300  Biso   1.000  H
  H319     1.0000 0.82270  0.63620  0.43520  Biso   1.000  H
  H320     1.0000 0.90940  0.62790  0.52850  Biso   1.000  H
  H321     1.0000 0.83870  0.66940  0.47140  Biso   1.000  H
  C312     1.0000 0.97900  0.04750  0.52840  Biso   1.000  C
  H322     1.0000 0.94480  0.05170  0.54030  Biso   1.000  H
  H323     1.0000 0.99900  0.07560  0.54030  Biso   1.000  H
  H324     1.0000 0.84070  0.51170  0.47150  Biso   1.000  H
  H325     1.0000 0.76820  0.55240  0.52870  Biso   1.000  H
  N27      1.0000 0.88722  0.28969  0.69051  Biso   1.000  N
  O66      1.0000 0.97493  0.07037  0.63673  Biso   1.000  O
  O67      1.0000 0.97314  0.06797  0.71787  Biso   1.000  O
  O68      1.0000 0.01118  0.43467  0.55034  Biso   1.000  O
  O69      1.0000 0.93629  0.47479  0.55004  Biso   1.000  O
  C313     1.0000 0.96659  0.08947  0.67752  Biso   1.000  C
  C314     1.0000 0.94652  0.14234  0.67997  Biso   1.000  C
  C315     1.0000 0.93656  0.16367  0.72524  Biso   1.000  C
  H326     1.0000 0.94270  0.14530  0.75350  Biso   1.000  H
  C316     1.0000 0.91733  0.21248  0.72817  Biso   1.000  C
  H327     1.0000 0.91070  0.22670  0.75850  Biso   1.000  H
  C317     1.0000 0.90809  0.23985  0.68664  Biso   1.000  C
  C318     1.0000 0.91797  0.21873  0.64190  Biso   1.000  C
  H328     1.0000 0.91140  0.23710  0.61370  Biso   1.000  H
  C319     1.0000 0.93764  0.17023  0.63851  Biso   1.000  C
  H329     1.0000 0.94480  0.15650  0.60810  Biso   1.000  H
  C320     1.0000 0.96598  0.44044  0.56389  Biso   1.000  C
  C321     1.0000 0.94525  0.40239  0.59898  Biso   1.000  C
  C322     1.0000 0.89424  0.40205  0.61171  Biso   1.000  C
  H330     1.0000 0.87280  0.42660  0.59900  Biso   1.000  H
  C323     1.0000 0.87524  0.36599  0.64268  Biso   1.000  C
  H331     1.0000 0.84120  0.36660  0.65090  Biso   1.000  H
  C324     1.0000 0.90631  0.32850  0.66194  Biso   1.000  C
  C325     1.0000 0.95823  0.33038  0.65076  Biso   1.000  C
  H332     1.0000 0.98020  0.30710  0.66480  Biso   1.000  H
  C326     1.0000 0.97665  0.36600  0.61948  Biso   1.000  C
  H333     1.0000 0.01080  0.36590  0.61170  Biso   1.000  H
  C327     1.0000 0.84357  0.29586  0.72082  Biso   1.000  C
  C328     1.0000 0.80698  0.25955  0.72060  Biso   1.000  C
  H334     1.0000 0.81040  0.23130  0.70070  Biso   1.000  H
  C329     1.0000 0.01190  0.04050  0.82850  Biso   1.000  C
  H335     1.0000 0.02020  0.06990  0.81190  Biso   1.000  H
  N28      1.0000 0.02680  0.08410  0.95220  Biso   1.000  N
  C330     1.0000 0.02190  0.08990  0.90420  Biso   1.000  C
  H336     1.0000 0.02410  0.12090  0.88840  Biso   1.000  H
  C331     1.0000 0.01240  0.04110  0.87850  Biso   1.000  C
  O70      1.0000 0.98230  0.98150  0.95180  Biso   1.000  O
  C332     1.0000 0.05180  0.12970  0.97310  Biso   1.000  C
  H337     1.0000 0.03440  0.15970  0.96150  Biso   1.000  H
  H338     1.0000 0.08640  0.13120  0.96150  Biso   1.000  H
  C333     1.0000 0.02160  0.04700  0.52800  Biso   1.000  C
  H339     1.0000 0.00200  0.07550  0.53980  Biso   1.000  H
  H340     1.0000 0.05590  0.05070  0.53980  Biso   1.000  H
  C334     1.0000 0.13350  0.42460  0.45160  Biso   1.000  C
  H341     1.0000 0.10860  0.40570  0.43320  Biso   1.000  H
  H342     1.0000 0.13850  0.45680  0.43540  Biso   1.000  H
  C335     1.0000 0.18260  0.39570  0.45180  Biso   1.000  C
  H343     1.0000 0.20720  0.41470  0.43300  Biso   1.000  H
  H344     1.0000 0.17730  0.36380  0.43520  Biso   1.000  H
  H345     1.0000 0.09060  0.37210  0.52850  Biso   1.000  H
  H346     1.0000 0.16130  0.33060  0.47140  Biso   1.000  H
  C336     1.0000 0.02100  0.95250  0.52840  Biso   1.000  C
  H347     1.0000 0.05520  0.94830  0.54030  Biso   1.000  H
  H348     1.0000 0.00100  0.92440  0.54030  Biso   1.000  H
  H349     1.0000 0.15930  0.48830  0.47150  Biso   1.000  H
  H350     1.0000 0.23180  0.44760  0.52870  Biso   1.000  H
  N29      1.0000 0.71031  0.88722  0.69051  Biso   1.000  N
  O71      1.0000 0.92963  0.97493  0.63673  Biso   1.000  O
  O72      1.0000 0.93203  0.97314  0.71787  Biso   1.000  O
  O73      1.0000 0.56533  0.01118  0.55034  Biso   1.000  O
  O74      1.0000 0.52521  0.93629  0.55004  Biso   1.000  O
  C337     1.0000 0.91053  0.96659  0.67752  Biso   1.000  C
  C338     1.0000 0.85766  0.94652  0.67997  Biso   1.000  C
  C339     1.0000 0.83633  0.93656  0.72524  Biso   1.000  C
  H351     1.0000 0.85470  0.94270  0.75350  Biso   1.000  H
  C340     1.0000 0.78752  0.91733  0.72817  Biso   1.000  C
  H352     1.0000 0.77330  0.91070  0.75850  Biso   1.000  H
  C341     1.0000 0.76015  0.90809  0.68664  Biso   1.000  C
  C342     1.0000 0.78127  0.91797  0.64190  Biso   1.000  C
  H353     1.0000 0.76290  0.91140  0.61370  Biso   1.000  H
  C343     1.0000 0.82977  0.93764  0.63851  Biso   1.000  C
  H354     1.0000 0.84350  0.94480  0.60810  Biso   1.000  H
  C344     1.0000 0.55956  0.96598  0.56389  Biso   1.000  C
  C345     1.0000 0.59761  0.94525  0.59898  Biso   1.000  C
  C346     1.0000 0.59795  0.89424  0.61171  Biso   1.000  C
  H355     1.0000 0.57340  0.87280  0.59900  Biso   1.000  H
  C347     1.0000 0.63401  0.87524  0.64268  Biso   1.000  C
  H356     1.0000 0.63340  0.84120  0.65090  Biso   1.000  H
  C348     1.0000 0.67150  0.90631  0.66194  Biso   1.000  C
  C349     1.0000 0.66962  0.95823  0.65076  Biso   1.000  C
  H357     1.0000 0.69290  0.98020  0.66480  Biso   1.000  H
  C350     1.0000 0.63400  0.97665  0.61948  Biso   1.000  C
  H358     1.0000 0.63410  0.01080  0.61170  Biso   1.000  H
  C351     1.0000 0.70414  0.84357  0.72082  Biso   1.000  C
  C352     1.0000 0.74045  0.80698  0.72060  Biso   1.000  C
  H359     1.0000 0.76870  0.81040  0.70070  Biso   1.000  H
  C353     1.0000 0.95950  0.01190  0.82850  Biso   1.000  C
  H360     1.0000 0.93010  0.02020  0.81190  Biso   1.000  H
  N30      1.0000 0.91590  0.02680  0.95220  Biso   1.000  N
  C354     1.0000 0.91010  0.02190  0.90420  Biso   1.000  C
  H361     1.0000 0.87910  0.02410  0.88840  Biso   1.000  H
  C355     1.0000 0.95890  0.01240  0.87850  Biso   1.000  C
  O75      1.0000 0.01850  0.98230  0.95180  Biso   1.000  O
  C356     1.0000 0.87030  0.05180  0.97310  Biso   1.000  C
  H362     1.0000 0.84030  0.03440  0.96150  Biso   1.000  H
  H363     1.0000 0.86880  0.08640  0.96150  Biso   1.000  H
  C357     1.0000 0.95300  0.02160  0.52800  Biso   1.000  C
  H364     1.0000 0.92450  0.00200  0.53980  Biso   1.000  H
  H365     1.0000 0.94930  0.05590  0.53980  Biso   1.000  H
  C358     1.0000 0.57540  0.13350  0.45160  Biso   1.000  C
  H366     1.0000 0.59430  0.10860  0.43320  Biso   1.000  H
  H367     1.0000 0.54320  0.13850  0.43540  Biso   1.000  H
  C359     1.0000 0.60430  0.18260  0.45180  Biso   1.000  C
  H368     1.0000 0.58530  0.20720  0.43300  Biso   1.000  H
  H369     1.0000 0.63620  0.17730  0.43520  Biso   1.000  H
  H370     1.0000 0.62790  0.09060  0.52850  Biso   1.000  H
  H371     1.0000 0.66940  0.16130  0.47140  Biso   1.000  H
  C360     1.0000 0.04750  0.02100  0.52840  Biso   1.000  C
  H372     1.0000 0.05170  0.05520  0.54030  Biso   1.000  H
  H373     1.0000 0.07560  0.00100  0.54030  Biso   1.000  H
  H374     1.0000 0.51170  0.15930  0.47150  Biso   1.000  H
  H375     1.0000 0.55240  0.23180  0.52870  Biso   1.000  H
  N31      1.0000 0.28969  0.11278  0.69051  Biso   1.000  N
  O76      1.0000 0.07037  0.02507  0.63673  Biso   1.000  O
  O77      1.0000 0.06797  0.02686  0.71787  Biso   1.000  O
  O78      1.0000 0.43467  0.98882  0.55034  Biso   1.000  O
  O79      1.0000 0.47479  0.06371  0.55004  Biso   1.000  O
  C361     1.0000 0.08947  0.03341  0.67752  Biso   1.000  C
  C362     1.0000 0.14234  0.05348  0.67997  Biso   1.000  C
  C363     1.0000 0.16367  0.06344  0.72524  Biso   1.000  C
  H376     1.0000 0.14530  0.05730  0.75350  Biso   1.000  H
  C364     1.0000 0.21248  0.08267  0.72817  Biso   1.000  C
  H377     1.0000 0.22670  0.08930  0.75850  Biso   1.000  H
  C365     1.0000 0.23985  0.09191  0.68664  Biso   1.000  C
  C366     1.0000 0.21873  0.08203  0.64190  Biso   1.000  C
  H378     1.0000 0.23710  0.08860  0.61370  Biso   1.000  H
  C367     1.0000 0.17023  0.06236  0.63851  Biso   1.000  C
  H379     1.0000 0.15650  0.05520  0.60810  Biso   1.000  H
  C368     1.0000 0.44044  0.03402  0.56389  Biso   1.000  C
  C369     1.0000 0.40239  0.05475  0.59898  Biso   1.000  C
  C370     1.0000 0.40205  0.10576  0.61171  Biso   1.000  C
  H380     1.0000 0.42660  0.12720  0.59900  Biso   1.000  H
  C371     1.0000 0.36599  0.12476  0.64268  Biso   1.000  C
  H381     1.0000 0.36660  0.15880  0.65090  Biso   1.000  H
  C372     1.0000 0.32850  0.09369  0.66194  Biso   1.000  C
  C373     1.0000 0.33038  0.04177  0.65076  Biso   1.000  C
  H382     1.0000 0.30710  0.01980  0.66480  Biso   1.000  H
  C374     1.0000 0.36600  0.02335  0.61948  Biso   1.000  C
  H383     1.0000 0.36590  0.98920  0.61170  Biso   1.000  H
  C375     1.0000 0.29586  0.15643  0.72082  Biso   1.000  C
  C376     1.0000 0.25955  0.19302  0.72060  Biso   1.000  C
  H384     1.0000 0.23130  0.18960  0.70070  Biso   1.000  H
  C377     1.0000 0.04050  0.98810  0.82850  Biso   1.000  C
  H385     1.0000 0.06990  0.97980  0.81190  Biso   1.000  H
  N32      1.0000 0.08410  0.97320  0.95220  Biso   1.000  N
  C378     1.0000 0.08990  0.97810  0.90420  Biso   1.000  C
  H386     1.0000 0.12090  0.97590  0.88840  Biso   1.000  H
  C379     1.0000 0.04110  0.98760  0.87850  Biso   1.000  C
  O80      1.0000 0.98150  0.01770  0.95180  Biso   1.000  O
  C380     1.0000 0.12970  0.94820  0.97310  Biso   1.000  C
  H387     1.0000 0.15970  0.96560  0.96150  Biso   1.000  H
  H388     1.0000 0.13120  0.91360  0.96150  Biso   1.000  H
  C381     1.0000 0.04700  0.97840  0.52800  Biso   1.000  C
  H389     1.0000 0.07550  0.99800  0.53980  Biso   1.000  H
  H390     1.0000 0.05070  0.94410  0.53980  Biso   1.000  H
  C382     1.0000 0.42460  0.86650  0.45160  Biso   1.000  C
  H391     1.0000 0.40570  0.89140  0.43320  Biso   1.000  H
  H392     1.0000 0.45680  0.86150  0.43540  Biso   1.000  H
  C383     1.0000 0.39570  0.81740  0.45180  Biso   1.000  C
  H393     1.0000 0.41470  0.79280  0.43300  Biso   1.000  H
  H394     1.0000 0.36380  0.82270  0.43520  Biso   1.000  H
  H395     1.0000 0.37210  0.90940  0.52850  Biso   1.000  H
  H396     1.0000 0.33060  0.83870  0.47140  Biso   1.000  H
  C384     1.0000 0.95250  0.97900  0.52840  Biso   1.000  C
  H397     1.0000 0.94830  0.94480  0.54030  Biso   1.000  H
  H398     1.0000 0.92440  0.99900  0.54030  Biso   1.000  H
  H399     1.0000 0.48830  0.84070  0.47150  Biso   1.000  H
  H400     1.0000 0.44760  0.76820  0.52870  Biso   1.000  H
  Cu1      1.0000 0.50000  0.50000  0.12818  Biso   1.000  Cu
  Cu2      1.0000 0.50000  0.50000  0.22537  Biso   1.000  Cu
  N33      1.0000 0.50000  0.50000  0.30301  Biso   1.000  N
  N34      1.0000 0.50000  0.50000  0.04735  Biso   1.000  N
  C385     1.0000 0.50000  0.50000  0.40450  Biso   1.000  C
  Cu3      1.0000 0.00000  0.00000  0.37182  Biso   1.000  Cu
  Cu4      1.0000 0.00000  0.00000  0.27463  Biso   1.000  Cu
  N35      1.0000 0.00000  0.00000  0.19699  Biso   1.000  N
  N36      1.0000 0.00000  0.00000  0.45265  Biso   1.000  N
  C386     1.0000 0.00000  0.00000  0.09550  Biso   1.000  C
  Cu5      1.0000 0.50000  0.50000  0.87182  Biso   1.000  Cu
  Cu6      1.0000 0.50000  0.50000  0.77463  Biso   1.000  Cu
  N37      1.0000 0.50000  0.50000  0.69699  Biso   1.000  N
  N38      1.0000 0.50000  0.50000  0.95265  Biso   1.000  N
  C387     1.0000 0.50000  0.50000  0.59550  Biso   1.000  C
  Cu7      1.0000 0.00000  0.00000  0.62818  Biso   1.000  Cu
  Cu8      1.0000 0.00000  0.00000  0.72537  Biso   1.000  Cu
  N39      1.0000 0.00000  0.00000  0.80301  Biso   1.000  N
  N40      1.0000 0.00000  0.00000  0.54735  Biso   1.000  N
  C388     1.0000 0.00000  0.00000  0.90450  Biso   1.000  C
  Cu9      1.0000 0.45596  0.97577  0.00000  Biso   1.000  Cu
  N41      1.0000 0.38530  0.93346  0.00000  Biso   1.000  N
  N42      1.0000 0.29570  0.88520  0.00000  Biso   1.000  N
  C389     1.0000 0.39010  0.88200  0.00000  Biso   1.000  C
  C390     1.0000 0.33980  0.85220  0.00000  Biso   1.000  C
  C391     1.0000 0.33930  0.96670  0.00000  Biso   1.000  C
  C392     1.0000 0.28740  0.93810  0.00000  Biso   1.000  C
  Cu10     1.0000 0.54404  0.02423  0.00000  Biso   1.000  Cu
  N43      1.0000 0.61470  0.06654  0.00000  Biso   1.000  N
  N44      1.0000 0.70430  0.11480  0.00000  Biso   1.000  N
  C393     1.0000 0.60990  0.11800  0.00000  Biso   1.000  C
  C394     1.0000 0.66020  0.14780  0.00000  Biso   1.000  C
  C395     1.0000 0.66070  0.03330  0.00000  Biso   1.000  C
  C396     1.0000 0.71260  0.06190  0.00000  Biso   1.000  C
  Cu11     1.0000 0.02423  0.45596  0.00000  Biso   1.000  Cu
  N45      1.0000 0.06654  0.38530  0.00000  Biso   1.000  N
  N46      1.0000 0.11480  0.29570  0.00000  Biso   1.000  N
  C397     1.0000 0.11800  0.39010  0.00000  Biso   1.000  C
  C398     1.0000 0.14780  0.33980  0.00000  Biso   1.000  C
  C399     1.0000 0.03330  0.33930  0.00000  Biso   1.000  C
  C400     1.0000 0.06190  0.28740  0.00000  Biso   1.000  C
  Cu12     1.0000 0.97577  0.54404  0.00000  Biso   1.000  Cu
  N47      1.0000 0.93346  0.61470  0.00000  Biso   1.000  N
  N48      1.0000 0.88520  0.70430  0.00000  Biso   1.000  N
  C401     1.0000 0.88200  0.60990  0.00000  Biso   1.000  C
  C402     1.0000 0.85220  0.66020  0.00000  Biso   1.000  C
  C403     1.0000 0.96670  0.66070  0.00000  Biso   1.000  C
  C404     1.0000 0.93810  0.71260  0.00000  Biso   1.000  C
  Cu13     1.0000 0.04404  0.47577  0.50000  Biso   1.000  Cu
  N49      1.0000 0.11470  0.43346  0.50000  Biso   1.000  N
  N50      1.0000 0.20430  0.38520  0.50000  Biso   1.000  N
  C405     1.0000 0.10990  0.38200  0.50000  Biso   1.000  C
  C406     1.0000 0.16020  0.35220  0.50000  Biso   1.000  C
  C407     1.0000 0.16070  0.46670  0.50000  Biso   1.000  C
  C408     1.0000 0.21260  0.43810  0.50000  Biso   1.000  C
  Cu14     1.0000 0.95596  0.52423  0.50000  Biso   1.000  Cu
  N51      1.0000 0.88530  0.56654  0.50000  Biso   1.000  N
  N52      1.0000 0.79570  0.61480  0.50000  Biso   1.000  N
  C409     1.0000 0.89010  0.61800  0.50000  Biso   1.000  C
  C410     1.0000 0.83980  0.64780  0.50000  Biso   1.000  C
  C411     1.0000 0.83930  0.53330  0.50000  Biso   1.000  C
  C412     1.0000 0.78740  0.56190  0.50000  Biso   1.000  C
  Cu15     1.0000 0.47577  0.95596  0.50000  Biso   1.000  Cu
  N53      1.0000 0.43346  0.88530  0.50000  Biso   1.000  N
  N54      1.0000 0.38520  0.79570  0.50000  Biso   1.000  N
  C413     1.0000 0.38200  0.89010  0.50000  Biso   1.000  C
  C414     1.0000 0.35220  0.83980  0.50000  Biso   1.000  C
  C415     1.0000 0.46670  0.83930  0.50000  Biso   1.000  C
  C416     1.0000 0.43810  0.78740  0.50000  Biso   1.000  C
  Cu16     1.0000 0.52423  0.04404  0.50000  Biso   1.000  Cu
  N55      1.0000 0.56654  0.11470  0.50000  Biso   1.000  N
  N56      1.0000 0.61480  0.20430  0.50000  Biso   1.000  N
  C417     1.0000 0.61800  0.10990  0.50000  Biso   1.000  C
  C418     1.0000 0.64780  0.16020  0.50000  Biso   1.000  C
  C419     1.0000 0.53330  0.16070  0.50000  Biso   1.000  C
  C420     1.0000 0.56190  0.21260  0.50000  Biso   1.000  C
  C421     1.0000 0.73530  0.76470  0.25000  Biso   1.000  C
  H401     1.0000 0.76010  0.73990  0.25000  Biso   1.000  H
  C422     1.0000 0.66209  0.83791  0.25000  Biso   1.000  C
  H402     1.0000 0.63720  0.86280  0.25000  Biso   1.000  H
  C423     1.0000 0.26470  0.23530  0.25000  Biso   1.000  C
  H403     1.0000 0.23990  0.26010  0.25000  Biso   1.000  H
  C424     1.0000 0.33791  0.16209  0.25000  Biso   1.000  C
  H404     1.0000 0.36280  0.13720  0.25000  Biso   1.000  H
  C425     1.0000 0.23530  0.73530  0.25000  Biso   1.000  C
  H405     1.0000 0.26010  0.76010  0.25000  Biso   1.000  H
  C426     1.0000 0.16209  0.66209  0.25000  Biso   1.000  C
  H406     1.0000 0.13720  0.63720  0.25000  Biso   1.000  H
  C427     1.0000 0.76470  0.26470  0.25000  Biso   1.000  C
  H407     1.0000 0.73990  0.23990  0.25000  Biso   1.000  H
  C428     1.0000 0.83791  0.33791  0.25000  Biso   1.000  C
  H408     1.0000 0.86280  0.36280  0.25000  Biso   1.000  H
  C429     1.0000 0.26470  0.23530  0.75000  Biso   1.000  C
  H409     1.0000 0.23990  0.26010  0.75000  Biso   1.000  H
  C430     1.0000 0.33791  0.16209  0.75000  Biso   1.000  C
  H410     1.0000 0.36280  0.13720  0.75000  Biso   1.000  H
  C431     1.0000 0.73530  0.76470  0.75000  Biso   1.000  C
  H411     1.0000 0.76010  0.73990  0.75000  Biso   1.000  H
  C432     1.0000 0.66209  0.83791  0.75000  Biso   1.000  C
  H412     1.0000 0.63720  0.86280  0.75000  Biso   1.000  H
  C433     1.0000 0.76470  0.26470  0.75000  Biso   1.000  C
  H413     1.0000 0.73990  0.23990  0.75000  Biso   1.000  H
  C434     1.0000 0.83791  0.33791  0.75000  Biso   1.000  C
  H414     1.0000 0.86280  0.36280  0.75000  Biso   1.000  H
  C435     1.0000 0.23530  0.73530  0.75000  Biso   1.000  C
  H415     1.0000 0.26010  0.76010  0.75000  Biso   1.000  H
  C436     1.0000 0.16209  0.66209  0.75000  Biso   1.000  C
  H416     1.0000 0.13720  0.63720  0.75000  Biso   1.000  H
  Pd1      1.0000 0.48760  0.53281  0.50000  Biso   1.000  Pd
  Pd2      1.0000 0.51240  0.46719  0.50000  Biso   1.000  Pd
  Pd3      1.0000 0.46719  0.48760  0.50000  Biso   1.000  Pd
  Pd4      1.0000 0.53281  0.51240  0.50000  Biso   1.000  Pd
  Pd5      1.0000 0.01240  0.03281  0.00000  Biso   1.000  Pd
  Pd6      1.0000 0.98760  0.96719  0.00000  Biso   1.000  Pd
  Pd7      1.0000 0.03281  0.98760  0.00000  Biso   1.000  Pd
  Pd8      1.0000 0.96719  0.01240  0.00000  Biso   1.000  Pd
