data_image0
_cell_length_a       26.34
_cell_length_b       26.34
_cell_length_c       28.37
_cell_angle_alpha    90
_cell_angle_beta     90
_cell_angle_gamma    90

_symmetry_space_group_name_H-M    "P 1"
_symmetry_int_tables_number       1

loop_
  _symmetry_equiv_pos_as_xyz
  'x, y, z'

loop_
  _atom_site_label
  _atom_site_occupancy
  _atom_site_fract_x
  _atom_site_fract_y
  _atom_site_fract_z
  _atom_site_thermal_displace_type
  _atom_site_B_iso_or_equiv
  _atom_site_type_symbol
  N1       1.0000 0.60294  0.79529  0.19585  Biso   1.000  N
  O1       1.0000 0.52152  0.57135  0.14947  Biso   1.000  O
  O2       1.0000 0.52233  0.57039  0.22843  Biso   1.000  O
  O3       1.0000 0.48609  0.93455  0.04862  Biso   1.000  O
  O4       1.0000 0.56303  0.97282  0.04868  Biso   1.000  O
  C1       1.0000 0.52840  0.59143  0.18873  Biso   1.000  C
  C2       1.0000 0.54650  0.64551  0.19034  Biso   1.000  C
  C3       1.0000 0.55543  0.66893  0.23277  Biso   1.000  C
  H1       1.0000 0.54920  0.65150  0.26070  Biso   1.000  H
  C4       1.0000 0.57375  0.71855  0.23446  Biso   1.000  C
  H2       1.0000 0.57980  0.73400  0.26340  Biso   1.000  H
  C5       1.0000 0.58293  0.74470  0.19315  Biso   1.000  C
  C6       1.0000 0.57363  0.72100  0.15067  Biso   1.000  C
  H3       1.0000 0.57990  0.73830  0.12270  Biso   1.000  H
  C7       1.0000 0.55544  0.67257  0.14893  Biso   1.000  C
  H4       1.0000 0.54900  0.65750  0.11990  Biso   1.000  H
  C8       1.0000 0.53120  0.93967  0.06229  Biso   1.000  C
  C9       1.0000 0.54997  0.90358  0.09963  Biso   1.000  C
  C10      1.0000 0.59960  0.90317  0.11266  Biso   1.000  C
  H5       1.0000 0.62140  0.92730  0.10000  Biso   1.000  H
  C11      1.0000 0.61897  0.86715  0.14481  Biso   1.000  C
  H6       1.0000 0.65330  0.86680  0.15250  Biso   1.000  H
  C12      1.0000 0.58552  0.83199  0.16478  Biso   1.000  C
  C13      1.0000 0.53515  0.83391  0.15240  Biso   1.000  C
  H7       1.0000 0.51260  0.81080  0.16570  Biso   1.000  H
  C14      1.0000 0.51715  0.86922  0.12069  Biso   1.000  C
  H8       1.0000 0.48270  0.87000  0.11340  Biso   1.000  H
  C15      1.0000 0.64854  0.80192  0.22307  Biso   1.000  C
  C16      1.0000 0.68470  0.76540  0.22320  Biso   1.000  C
  H9       1.0000 0.68070  0.73590  0.20560  Biso   1.000  H
  C17      1.0000 0.48320  0.53730  0.33640  Biso   1.000  C
  H10      1.0000 0.47070  0.56510  0.31990  Biso   1.000  H
  N2       1.0000 0.46490  0.57940  0.45330  Biso   1.000  N
  C18      1.0000 0.46270  0.58760  0.40670  Biso   1.000  C
  H11      1.0000 0.45140  0.61710  0.39210  Biso   1.000  H
  C19      1.0000 0.48130  0.54120  0.38240  Biso   1.000  C
  O5       1.0000 0.51700  0.48600  0.45560  Biso   1.000  O
  C20      1.0000 0.42030  0.60670  0.47440  Biso   1.000  C
  H12      1.0000 0.41970  0.64160  0.46340  Biso   1.000  H
  H13      1.0000 0.38950  0.59030  0.46340  Biso   1.000  H
  N3       1.0000 0.39706  0.20471  0.19585  Biso   1.000  N
  O6       1.0000 0.47848  0.42865  0.14947  Biso   1.000  O
  O7       1.0000 0.47767  0.42961  0.22843  Biso   1.000  O
  O8       1.0000 0.51391  0.06545  0.04862  Biso   1.000  O
  O9       1.0000 0.43697  0.02718  0.04868  Biso   1.000  O
  C21      1.0000 0.47160  0.40857  0.18873  Biso   1.000  C
  C22      1.0000 0.45350  0.35449  0.19034  Biso   1.000  C
  C23      1.0000 0.44457  0.33107  0.23277  Biso   1.000  C
  H14      1.0000 0.45080  0.34850  0.26070  Biso   1.000  H
  C24      1.0000 0.42625  0.28145  0.23446  Biso   1.000  C
  H15      1.0000 0.42020  0.26600  0.26340  Biso   1.000  H
  C25      1.0000 0.41707  0.25530  0.19315  Biso   1.000  C
  C26      1.0000 0.42637  0.27900  0.15067  Biso   1.000  C
  H16      1.0000 0.42010  0.26170  0.12270  Biso   1.000  H
  C27      1.0000 0.44456  0.32743  0.14893  Biso   1.000  C
  H17      1.0000 0.45100  0.34250  0.11990  Biso   1.000  H
  C28      1.0000 0.46880  0.06033  0.06229  Biso   1.000  C
  C29      1.0000 0.45003  0.09642  0.09963  Biso   1.000  C
  C30      1.0000 0.40040  0.09683  0.11266  Biso   1.000  C
  H18      1.0000 0.37860  0.07270  0.10000  Biso   1.000  H
  C31      1.0000 0.38103  0.13285  0.14481  Biso   1.000  C
  H19      1.0000 0.34670  0.13320  0.15250  Biso   1.000  H
  C32      1.0000 0.41448  0.16801  0.16478  Biso   1.000  C
  C33      1.0000 0.46485  0.16609  0.15240  Biso   1.000  C
  H20      1.0000 0.48740  0.18920  0.16570  Biso   1.000  H
  C34      1.0000 0.48285  0.13078  0.12069  Biso   1.000  C
  H21      1.0000 0.51730  0.13000  0.11340  Biso   1.000  H
  C35      1.0000 0.35146  0.19808  0.22307  Biso   1.000  C
  C36      1.0000 0.31530  0.23460  0.22320  Biso   1.000  C
  H22      1.0000 0.31930  0.26410  0.20560  Biso   1.000  H
  C37      1.0000 0.51680  0.46270  0.33640  Biso   1.000  C
  H23      1.0000 0.52930  0.43490  0.31990  Biso   1.000  H
  N4       1.0000 0.53510  0.42060  0.45330  Biso   1.000  N
  C38      1.0000 0.53730  0.41240  0.40670  Biso   1.000  C
  H24      1.0000 0.54860  0.38290  0.39210  Biso   1.000  H
  C39      1.0000 0.51870  0.45880  0.38240  Biso   1.000  C
  O10      1.0000 0.48300  0.51400  0.45560  Biso   1.000  O
  C40      1.0000 0.57970  0.39330  0.47440  Biso   1.000  C
  H25      1.0000 0.58030  0.35840  0.46340  Biso   1.000  H
  H26      1.0000 0.61050  0.40970  0.46340  Biso   1.000  H
  N5       1.0000 0.20471  0.60294  0.19585  Biso   1.000  N
  O11      1.0000 0.42865  0.52152  0.14947  Biso   1.000  O
  O12      1.0000 0.42961  0.52233  0.22843  Biso   1.000  O
  O13      1.0000 0.06545  0.48609  0.04862  Biso   1.000  O
  O14      1.0000 0.02718  0.56303  0.04868  Biso   1.000  O
  C41      1.0000 0.40857  0.52840  0.18873  Biso   1.000  C
  C42      1.0000 0.35449  0.54650  0.19034  Biso   1.000  C
  C43      1.0000 0.33107  0.55543  0.23277  Biso   1.000  C
  H27      1.0000 0.34850  0.54920  0.26070  Biso   1.000  H
  C44      1.0000 0.28145  0.57375  0.23446  Biso   1.000  C
  H28      1.0000 0.26600  0.57980  0.26340  Biso   1.000  H
  C45      1.0000 0.25530  0.58293  0.19315  Biso   1.000  C
  C46      1.0000 0.27900  0.57363  0.15067  Biso   1.000  C
  H29      1.0000 0.26170  0.57990  0.12270  Biso   1.000  H
  C47      1.0000 0.32743  0.55544  0.14893  Biso   1.000  C
  H30      1.0000 0.34250  0.54900  0.11990  Biso   1.000  H
  C48      1.0000 0.06033  0.53120  0.06229  Biso   1.000  C
  C49      1.0000 0.09642  0.54997  0.09963  Biso   1.000  C
  C50      1.0000 0.09683  0.59960  0.11266  Biso   1.000  C
  H31      1.0000 0.07270  0.62140  0.10000  Biso   1.000  H
  C51      1.0000 0.13285  0.61897  0.14481  Biso   1.000  C
  H32      1.0000 0.13320  0.65330  0.15250  Biso   1.000  H
  C52      1.0000 0.16801  0.58552  0.16478  Biso   1.000  C
  C53      1.0000 0.16609  0.53515  0.15240  Biso   1.000  C
  H33      1.0000 0.18920  0.51260  0.16570  Biso   1.000  H
  C54      1.0000 0.13078  0.51715  0.12069  Biso   1.000  C
  H34      1.0000 0.13000  0.48270  0.11340  Biso   1.000  H
  C55      1.0000 0.19808  0.64854  0.22307  Biso   1.000  C
  C56      1.0000 0.23460  0.68470  0.22320  Biso   1.000  C
  H35      1.0000 0.26410  0.68070  0.20560  Biso   1.000  H
  C57      1.0000 0.46270  0.48320  0.33640  Biso   1.000  C
  H36      1.0000 0.43490  0.47070  0.31990  Biso   1.000  H
  N6       1.0000 0.42060  0.46490  0.45330  Biso   1.000  N
  C58      1.0000 0.41240  0.46270  0.40670  Biso   1.000  C
  H37      1.0000 0.38290  0.45140  0.39210  Biso   1.000  H
  C59      1.0000 0.45880  0.48130  0.38240  Biso   1.000  C
  O15      1.0000 0.51400  0.51700  0.45560  Biso   1.000  O
  C60      1.0000 0.39330  0.42030  0.47440  Biso   1.000  C
  H38      1.0000 0.35840  0.41970  0.46340  Biso   1.000  H
  H39      1.0000 0.40970  0.38950  0.46340  Biso   1.000  H
  N7       1.0000 0.79529  0.39706  0.19585  Biso   1.000  N
  O16      1.0000 0.57135  0.47848  0.14947  Biso   1.000  O
  O17      1.0000 0.57039  0.47767  0.22843  Biso   1.000  O
  O18      1.0000 0.93455  0.51391  0.04862  Biso   1.000  O
  O19      1.0000 0.97282  0.43697  0.04868  Biso   1.000  O
  C61      1.0000 0.59143  0.47160  0.18873  Biso   1.000  C
  C62      1.0000 0.64551  0.45350  0.19034  Biso   1.000  C
  C63      1.0000 0.66893  0.44457  0.23277  Biso   1.000  C
  H40      1.0000 0.65150  0.45080  0.26070  Biso   1.000  H
  C64      1.0000 0.71855  0.42625  0.23446  Biso   1.000  C
  H41      1.0000 0.73400  0.42020  0.26340  Biso   1.000  H
  C65      1.0000 0.74470  0.41707  0.19315  Biso   1.000  C
  C66      1.0000 0.72100  0.42637  0.15067  Biso   1.000  C
  H42      1.0000 0.73830  0.42010  0.12270  Biso   1.000  H
  C67      1.0000 0.67257  0.44456  0.14893  Biso   1.000  C
  H43      1.0000 0.65750  0.45100  0.11990  Biso   1.000  H
  C68      1.0000 0.93967  0.46880  0.06229  Biso   1.000  C
  C69      1.0000 0.90358  0.45003  0.09963  Biso   1.000  C
  C70      1.0000 0.90317  0.40040  0.11266  Biso   1.000  C
  H44      1.0000 0.92730  0.37860  0.10000  Biso   1.000  H
  C71      1.0000 0.86715  0.38103  0.14481  Biso   1.000  C
  H45      1.0000 0.86680  0.34670  0.15250  Biso   1.000  H
  C72      1.0000 0.83199  0.41448  0.16478  Biso   1.000  C
  C73      1.0000 0.83391  0.46485  0.15240  Biso   1.000  C
  H46      1.0000 0.81080  0.48740  0.16570  Biso   1.000  H
  C74      1.0000 0.86922  0.48285  0.12069  Biso   1.000  C
  H47      1.0000 0.87000  0.51730  0.11340  Biso   1.000  H
  C75      1.0000 0.80192  0.35146  0.22307  Biso   1.000  C
  C76      1.0000 0.76540  0.31530  0.22320  Biso   1.000  C
  H48      1.0000 0.73590  0.31930  0.20560  Biso   1.000  H
  C77      1.0000 0.53730  0.51680  0.33640  Biso   1.000  C
  H49      1.0000 0.56510  0.52930  0.31990  Biso   1.000  H
  N8       1.0000 0.57940  0.53510  0.45330  Biso   1.000  N
  C78      1.0000 0.58760  0.53730  0.40670  Biso   1.000  C
  H50      1.0000 0.61710  0.54860  0.39210  Biso   1.000  H
  C79      1.0000 0.54120  0.51870  0.38240  Biso   1.000  C
  O20      1.0000 0.48600  0.48300  0.45560  Biso   1.000  O
  C80      1.0000 0.60670  0.57970  0.47440  Biso   1.000  C
  H51      1.0000 0.64160  0.58030  0.46340  Biso   1.000  H
  H52      1.0000 0.59030  0.61050  0.46340  Biso   1.000  H
  N9       1.0000 0.89706  0.29529  0.30415  Biso   1.000  N
  O21      1.0000 0.97848  0.07135  0.35053  Biso   1.000  O
  O22      1.0000 0.97767  0.07039  0.27157  Biso   1.000  O
  O23      1.0000 0.01391  0.43455  0.45138  Biso   1.000  O
  O24      1.0000 0.93697  0.47282  0.45132  Biso   1.000  O
  C81      1.0000 0.97160  0.09143  0.31127  Biso   1.000  C
  C82      1.0000 0.95350  0.14551  0.30966  Biso   1.000  C
  C83      1.0000 0.94457  0.16893  0.26723  Biso   1.000  C
  H53      1.0000 0.95080  0.15150  0.23930  Biso   1.000  H
  C84      1.0000 0.92625  0.21855  0.26554  Biso   1.000  C
  H54      1.0000 0.92020  0.23400  0.23660  Biso   1.000  H
  C85      1.0000 0.91707  0.24470  0.30685  Biso   1.000  C
  C86      1.0000 0.92637  0.22100  0.34933  Biso   1.000  C
  H55      1.0000 0.92010  0.23830  0.37730  Biso   1.000  H
  C87      1.0000 0.94456  0.17257  0.35107  Biso   1.000  C
  H56      1.0000 0.95100  0.15750  0.38010  Biso   1.000  H
  C88      1.0000 0.96880  0.43967  0.43771  Biso   1.000  C
  C89      1.0000 0.95003  0.40358  0.40037  Biso   1.000  C
  C90      1.0000 0.90040  0.40317  0.38734  Biso   1.000  C
  H57      1.0000 0.87860  0.42730  0.40000  Biso   1.000  H
  C91      1.0000 0.88103  0.36715  0.35519  Biso   1.000  C
  H58      1.0000 0.84670  0.36680  0.34750  Biso   1.000  H
  C92      1.0000 0.91448  0.33199  0.33522  Biso   1.000  C
  C93      1.0000 0.96485  0.33391  0.34760  Biso   1.000  C
  H59      1.0000 0.98740  0.31080  0.33430  Biso   1.000  H
  C94      1.0000 0.98285  0.36922  0.37931  Biso   1.000  C
  H60      1.0000 0.01730  0.37000  0.38660  Biso   1.000  H
  C95      1.0000 0.85146  0.30192  0.27693  Biso   1.000  C
  C96      1.0000 0.81530  0.26540  0.27680  Biso   1.000  C
  H61      1.0000 0.81930  0.23590  0.29440  Biso   1.000  H
  C97      1.0000 0.01680  0.03730  0.16360  Biso   1.000  C
  H62      1.0000 0.02930  0.06510  0.18010  Biso   1.000  H
  N10      1.0000 0.03510  0.07940  0.04670  Biso   1.000  N
  C98      1.0000 0.03730  0.08760  0.09330  Biso   1.000  C
  H63      1.0000 0.04860  0.11710  0.10790  Biso   1.000  H
  C99      1.0000 0.01870  0.04120  0.11760  Biso   1.000  C
  O25      1.0000 0.98300  0.98600  0.04440  Biso   1.000  O
  C100     1.0000 0.07970  0.10670  0.02560  Biso   1.000  C
  H64      1.0000 0.08030  0.14160  0.03660  Biso   1.000  H
  H65      1.0000 0.11050  0.09030  0.03660  Biso   1.000  H
  N11      1.0000 0.10294  0.70471  0.30415  Biso   1.000  N
  O26      1.0000 0.02152  0.92865  0.35053  Biso   1.000  O
  O27      1.0000 0.02233  0.92961  0.27157  Biso   1.000  O
  O28      1.0000 0.98609  0.56545  0.45138  Biso   1.000  O
  O29      1.0000 0.06303  0.52718  0.45132  Biso   1.000  O
  C101     1.0000 0.02840  0.90857  0.31127  Biso   1.000  C
  C102     1.0000 0.04650  0.85449  0.30966  Biso   1.000  C
  C103     1.0000 0.05543  0.83107  0.26723  Biso   1.000  C
  H66      1.0000 0.04920  0.84850  0.23930  Biso   1.000  H
  C104     1.0000 0.07375  0.78145  0.26554  Biso   1.000  C
  H67      1.0000 0.07980  0.76600  0.23660  Biso   1.000  H
  C105     1.0000 0.08293  0.75530  0.30685  Biso   1.000  C
  C106     1.0000 0.07363  0.77900  0.34933  Biso   1.000  C
  H68      1.0000 0.07990  0.76170  0.37730  Biso   1.000  H
  C107     1.0000 0.05544  0.82743  0.35107  Biso   1.000  C
  H69      1.0000 0.04900  0.84250  0.38010  Biso   1.000  H
  C108     1.0000 0.03120  0.56033  0.43771  Biso   1.000  C
  C109     1.0000 0.04997  0.59642  0.40037  Biso   1.000  C
  C110     1.0000 0.09960  0.59683  0.38734  Biso   1.000  C
  H70      1.0000 0.12140  0.57270  0.40000  Biso   1.000  H
  C111     1.0000 0.11897  0.63285  0.35519  Biso   1.000  C
  H71      1.0000 0.15330  0.63320  0.34750  Biso   1.000  H
  C112     1.0000 0.08552  0.66801  0.33522  Biso   1.000  C
  C113     1.0000 0.03515  0.66609  0.34760  Biso   1.000  C
  H72      1.0000 0.01260  0.68920  0.33430  Biso   1.000  H
  C114     1.0000 0.01715  0.63078  0.37931  Biso   1.000  C
  H73      1.0000 0.98270  0.63000  0.38660  Biso   1.000  H
  C115     1.0000 0.14854  0.69808  0.27693  Biso   1.000  C
  C116     1.0000 0.18470  0.73460  0.27680  Biso   1.000  C
  H74      1.0000 0.18070  0.76410  0.29440  Biso   1.000  H
  C117     1.0000 0.98320  0.96270  0.16360  Biso   1.000  C
  H75      1.0000 0.97070  0.93490  0.18010  Biso   1.000  H
  N12      1.0000 0.96490  0.92060  0.04670  Biso   1.000  N
  C118     1.0000 0.96270  0.91240  0.09330  Biso   1.000  C
  H76      1.0000 0.95140  0.88290  0.10790  Biso   1.000  H
  C119     1.0000 0.98130  0.95880  0.11760  Biso   1.000  C
  O30      1.0000 0.01700  0.01400  0.04440  Biso   1.000  O
  C120     1.0000 0.92030  0.89330  0.02560  Biso   1.000  C
  H77      1.0000 0.91970  0.85840  0.03660  Biso   1.000  H
  H78      1.0000 0.88950  0.90970  0.03660  Biso   1.000  H
  N13      1.0000 0.29529  0.10294  0.30415  Biso   1.000  N
  O31      1.0000 0.07135  0.02152  0.35053  Biso   1.000  O
  O32      1.0000 0.07039  0.02233  0.27157  Biso   1.000  O
  O33      1.0000 0.43455  0.98609  0.45138  Biso   1.000  O
  O34      1.0000 0.47282  0.06303  0.45132  Biso   1.000  O
  C121     1.0000 0.09143  0.02840  0.31127  Biso   1.000  C
  C122     1.0000 0.14551  0.04650  0.30966  Biso   1.000  C
  C123     1.0000 0.16893  0.05543  0.26723  Biso   1.000  C
  H79      1.0000 0.15150  0.04920  0.23930  Biso   1.000  H
  C124     1.0000 0.21855  0.07375  0.26554  Biso   1.000  C
  H80      1.0000 0.23400  0.07980  0.23660  Biso   1.000  H
  C125     1.0000 0.24470  0.08293  0.30685  Biso   1.000  C
  C126     1.0000 0.22100  0.07363  0.34933  Biso   1.000  C
  H81      1.0000 0.23830  0.07990  0.37730  Biso   1.000  H
  C127     1.0000 0.17257  0.05544  0.35107  Biso   1.000  C
  H82      1.0000 0.15750  0.04900  0.38010  Biso   1.000  H
  C128     1.0000 0.43967  0.03120  0.43771  Biso   1.000  C
  C129     1.0000 0.40358  0.04997  0.40037  Biso   1.000  C
  C130     1.0000 0.40317  0.09960  0.38734  Biso   1.000  C
  H83      1.0000 0.42730  0.12140  0.40000  Biso   1.000  H
  C131     1.0000 0.36715  0.11897  0.35519  Biso   1.000  C
  H84      1.0000 0.36680  0.15330  0.34750  Biso   1.000  H
  C132     1.0000 0.33199  0.08552  0.33522  Biso   1.000  C
  C133     1.0000 0.33391  0.03515  0.34760  Biso   1.000  C
  H85      1.0000 0.31080  0.01260  0.33430  Biso   1.000  H
  C134     1.0000 0.36922  0.01715  0.37931  Biso   1.000  C
  H86      1.0000 0.37000  0.98270  0.38660  Biso   1.000  H
  C135     1.0000 0.30192  0.14854  0.27693  Biso   1.000  C
  C136     1.0000 0.26540  0.18470  0.27680  Biso   1.000  C
  H87      1.0000 0.23590  0.18070  0.29440  Biso   1.000  H
  C137     1.0000 0.03730  0.98320  0.16360  Biso   1.000  C
  H88      1.0000 0.06510  0.97070  0.18010  Biso   1.000  H
  N14      1.0000 0.07940  0.96490  0.04670  Biso   1.000  N
  C138     1.0000 0.08760  0.96270  0.09330  Biso   1.000  C
  H89      1.0000 0.11710  0.95140  0.10790  Biso   1.000  H
  C139     1.0000 0.04120  0.98130  0.11760  Biso   1.000  C
  O35      1.0000 0.98600  0.01700  0.04440  Biso   1.000  O
  C140     1.0000 0.10670  0.92030  0.02560  Biso   1.000  C
  H90      1.0000 0.14160  0.91970  0.03660  Biso   1.000  H
  H91      1.0000 0.09030  0.88950  0.03660  Biso   1.000  H
  N15      1.0000 0.70471  0.89706  0.30415  Biso   1.000  N
  O36      1.0000 0.92865  0.97848  0.35053  Biso   1.000  O
  O37      1.0000 0.92961  0.97767  0.27157  Biso   1.000  O
  O38      1.0000 0.56545  0.01391  0.45138  Biso   1.000  O
  O39      1.0000 0.52718  0.93697  0.45132  Biso   1.000  O
  C141     1.0000 0.90857  0.97160  0.31127  Biso   1.000  C
  C142     1.0000 0.85449  0.95350  0.30966  Biso   1.000  C
  C143     1.0000 0.83107  0.94457  0.26723  Biso   1.000  C
  H92      1.0000 0.84850  0.95080  0.23930  Biso   1.000  H
  C144     1.0000 0.78145  0.92625  0.26554  Biso   1.000  C
  H93      1.0000 0.76600  0.92020  0.23660  Biso   1.000  H
  C145     1.0000 0.75530  0.91707  0.30685  Biso   1.000  C
  C146     1.0000 0.77900  0.92637  0.34933  Biso   1.000  C
  H94      1.0000 0.76170  0.92010  0.37730  Biso   1.000  H
  C147     1.0000 0.82743  0.94456  0.35107  Biso   1.000  C
  H95      1.0000 0.84250  0.95100  0.38010  Biso   1.000  H
  C148     1.0000 0.56033  0.96880  0.43771  Biso   1.000  C
  C149     1.0000 0.59642  0.95003  0.40037  Biso   1.000  C
  C150     1.0000 0.59683  0.90040  0.38734  Biso   1.000  C
  H96      1.0000 0.57270  0.87860  0.40000  Biso   1.000  H
  C151     1.0000 0.63285  0.88103  0.35519  Biso   1.000  C
  H97      1.0000 0.63320  0.84670  0.34750  Biso   1.000  H
  C152     1.0000 0.66801  0.91448  0.33522  Biso   1.000  C
  C153     1.0000 0.66609  0.96485  0.34760  Biso   1.000  C
  H98      1.0000 0.68920  0.98740  0.33430  Biso   1.000  H
  C154     1.0000 0.63078  0.98285  0.37931  Biso   1.000  C
  H99      1.0000 0.63000  0.01730  0.38660  Biso   1.000  H
  C155     1.0000 0.69808  0.85146  0.27693  Biso   1.000  C
  C156     1.0000 0.73460  0.81530  0.27680  Biso   1.000  C
  H100     1.0000 0.76410  0.81930  0.29440  Biso   1.000  H
  C157     1.0000 0.96270  0.01680  0.16360  Biso   1.000  C
  H101     1.0000 0.93490  0.02930  0.18010  Biso   1.000  H
  N16      1.0000 0.92060  0.03510  0.04670  Biso   1.000  N
  C158     1.0000 0.91240  0.03730  0.09330  Biso   1.000  C
  H102     1.0000 0.88290  0.04860  0.10790  Biso   1.000  H
  C159     1.0000 0.95880  0.01870  0.11760  Biso   1.000  C
  O40      1.0000 0.01400  0.98300  0.04440  Biso   1.000  O
  C160     1.0000 0.89330  0.07970  0.02560  Biso   1.000  C
  H103     1.0000 0.85840  0.08030  0.03660  Biso   1.000  H
  H104     1.0000 0.90970  0.11050  0.03660  Biso   1.000  H
  N17      1.0000 0.39706  0.20471  0.80415  Biso   1.000  N
  O41      1.0000 0.47848  0.42865  0.85053  Biso   1.000  O
  O42      1.0000 0.47767  0.42961  0.77157  Biso   1.000  O
  O43      1.0000 0.51391  0.06545  0.95138  Biso   1.000  O
  O44      1.0000 0.43697  0.02718  0.95132  Biso   1.000  O
  C161     1.0000 0.47160  0.40857  0.81127  Biso   1.000  C
  C162     1.0000 0.45350  0.35449  0.80966  Biso   1.000  C
  C163     1.0000 0.44457  0.33107  0.76723  Biso   1.000  C
  H105     1.0000 0.45080  0.34850  0.73930  Biso   1.000  H
  C164     1.0000 0.42625  0.28145  0.76554  Biso   1.000  C
  H106     1.0000 0.42020  0.26600  0.73660  Biso   1.000  H
  C165     1.0000 0.41707  0.25530  0.80685  Biso   1.000  C
  C166     1.0000 0.42637  0.27900  0.84933  Biso   1.000  C
  H107     1.0000 0.42010  0.26170  0.87730  Biso   1.000  H
  C167     1.0000 0.44456  0.32743  0.85107  Biso   1.000  C
  H108     1.0000 0.45100  0.34250  0.88010  Biso   1.000  H
  C168     1.0000 0.46880  0.06033  0.93771  Biso   1.000  C
  C169     1.0000 0.45003  0.09642  0.90037  Biso   1.000  C
  C170     1.0000 0.40040  0.09683  0.88734  Biso   1.000  C
  H109     1.0000 0.37860  0.07270  0.90000  Biso   1.000  H
  C171     1.0000 0.38103  0.13285  0.85519  Biso   1.000  C
  H110     1.0000 0.34670  0.13320  0.84750  Biso   1.000  H
  C172     1.0000 0.41448  0.16801  0.83522  Biso   1.000  C
  C173     1.0000 0.46485  0.16609  0.84760  Biso   1.000  C
  H111     1.0000 0.48740  0.18920  0.83430  Biso   1.000  H
  C174     1.0000 0.48285  0.13078  0.87931  Biso   1.000  C
  H112     1.0000 0.51730  0.13000  0.88660  Biso   1.000  H
  C175     1.0000 0.35146  0.19808  0.77693  Biso   1.000  C
  C176     1.0000 0.31530  0.23460  0.77680  Biso   1.000  C
  H113     1.0000 0.31930  0.26410  0.79440  Biso   1.000  H
  C177     1.0000 0.51680  0.46270  0.66360  Biso   1.000  C
  H114     1.0000 0.52930  0.43490  0.68010  Biso   1.000  H
  N18      1.0000 0.53510  0.42060  0.54670  Biso   1.000  N
  C178     1.0000 0.53730  0.41240  0.59330  Biso   1.000  C
  H115     1.0000 0.54860  0.38290  0.60790  Biso   1.000  H
  C179     1.0000 0.51870  0.45880  0.61760  Biso   1.000  C
  O45      1.0000 0.48300  0.51400  0.54440  Biso   1.000  O
  C180     1.0000 0.57970  0.39330  0.52560  Biso   1.000  C
  H116     1.0000 0.58030  0.35840  0.53660  Biso   1.000  H
  H117     1.0000 0.61050  0.40970  0.53660  Biso   1.000  H
  N19      1.0000 0.60294  0.79529  0.80415  Biso   1.000  N
  O46      1.0000 0.52152  0.57135  0.85053  Biso   1.000  O
  O47      1.0000 0.52233  0.57039  0.77157  Biso   1.000  O
  O48      1.0000 0.48609  0.93455  0.95138  Biso   1.000  O
  O49      1.0000 0.56303  0.97282  0.95132  Biso   1.000  O
  C181     1.0000 0.52840  0.59143  0.81127  Biso   1.000  C
  C182     1.0000 0.54650  0.64551  0.80966  Biso   1.000  C
  C183     1.0000 0.55543  0.66893  0.76723  Biso   1.000  C
  H118     1.0000 0.54920  0.65150  0.73930  Biso   1.000  H
  C184     1.0000 0.57375  0.71855  0.76554  Biso   1.000  C
  H119     1.0000 0.57980  0.73400  0.73660  Biso   1.000  H
  C185     1.0000 0.58293  0.74470  0.80685  Biso   1.000  C
  C186     1.0000 0.57363  0.72100  0.84933  Biso   1.000  C
  H120     1.0000 0.57990  0.73830  0.87730  Biso   1.000  H
  C187     1.0000 0.55544  0.67257  0.85107  Biso   1.000  C
  H121     1.0000 0.54900  0.65750  0.88010  Biso   1.000  H
  C188     1.0000 0.53120  0.93967  0.93771  Biso   1.000  C
  C189     1.0000 0.54997  0.90358  0.90037  Biso   1.000  C
  C190     1.0000 0.59960  0.90317  0.88734  Biso   1.000  C
  H122     1.0000 0.62140  0.92730  0.90000  Biso   1.000  H
  C191     1.0000 0.61897  0.86715  0.85519  Biso   1.000  C
  H123     1.0000 0.65330  0.86680  0.84750  Biso   1.000  H
  C192     1.0000 0.58552  0.83199  0.83522  Biso   1.000  C
  C193     1.0000 0.53515  0.83391  0.84760  Biso   1.000  C
  H124     1.0000 0.51260  0.81080  0.83430  Biso   1.000  H
  C194     1.0000 0.51715  0.86922  0.87931  Biso   1.000  C
  H125     1.0000 0.48270  0.87000  0.88660  Biso   1.000  H
  C195     1.0000 0.64854  0.80192  0.77693  Biso   1.000  C
  C196     1.0000 0.68470  0.76540  0.77680  Biso   1.000  C
  H126     1.0000 0.68070  0.73590  0.79440  Biso   1.000  H
  C197     1.0000 0.48320  0.53730  0.66360  Biso   1.000  C
  H127     1.0000 0.47070  0.56510  0.68010  Biso   1.000  H
  N20      1.0000 0.46490  0.57940  0.54670  Biso   1.000  N
  C198     1.0000 0.46270  0.58760  0.59330  Biso   1.000  C
  H128     1.0000 0.45140  0.61710  0.60790  Biso   1.000  H
  C199     1.0000 0.48130  0.54120  0.61760  Biso   1.000  C
  O50      1.0000 0.51700  0.48600  0.54440  Biso   1.000  O
  C200     1.0000 0.42030  0.60670  0.52560  Biso   1.000  C
  H129     1.0000 0.41970  0.64160  0.53660  Biso   1.000  H
  H130     1.0000 0.38950  0.59030  0.53660  Biso   1.000  H
  N21      1.0000 0.79529  0.39706  0.80415  Biso   1.000  N
  O51      1.0000 0.57135  0.47848  0.85053  Biso   1.000  O
  O52      1.0000 0.57039  0.47767  0.77157  Biso   1.000  O
  O53      1.0000 0.93455  0.51391  0.95138  Biso   1.000  O
  O54      1.0000 0.97282  0.43697  0.95132  Biso   1.000  O
  C201     1.0000 0.59143  0.47160  0.81127  Biso   1.000  C
  C202     1.0000 0.64551  0.45350  0.80966  Biso   1.000  C
  C203     1.0000 0.66893  0.44457  0.76723  Biso   1.000  C
  H131     1.0000 0.65150  0.45080  0.73930  Biso   1.000  H
  C204     1.0000 0.71855  0.42625  0.76554  Biso   1.000  C
  H132     1.0000 0.73400  0.42020  0.73660  Biso   1.000  H
  C205     1.0000 0.74470  0.41707  0.80685  Biso   1.000  C
  C206     1.0000 0.72100  0.42637  0.84933  Biso   1.000  C
  H133     1.0000 0.73830  0.42010  0.87730  Biso   1.000  H
  C207     1.0000 0.67257  0.44456  0.85107  Biso   1.000  C
  H134     1.0000 0.65750  0.45100  0.88010  Biso   1.000  H
  C208     1.0000 0.93967  0.46880  0.93771  Biso   1.000  C
  C209     1.0000 0.90358  0.45003  0.90037  Biso   1.000  C
  C210     1.0000 0.90317  0.40040  0.88734  Biso   1.000  C
  H135     1.0000 0.92730  0.37860  0.90000  Biso   1.000  H
  C211     1.0000 0.86715  0.38103  0.85519  Biso   1.000  C
  H136     1.0000 0.86680  0.34670  0.84750  Biso   1.000  H
  C212     1.0000 0.83199  0.41448  0.83522  Biso   1.000  C
  C213     1.0000 0.83391  0.46485  0.84760  Biso   1.000  C
  H137     1.0000 0.81080  0.48740  0.83430  Biso   1.000  H
  C214     1.0000 0.86922  0.48285  0.87931  Biso   1.000  C
  H138     1.0000 0.87000  0.51730  0.88660  Biso   1.000  H
  C215     1.0000 0.80192  0.35146  0.77693  Biso   1.000  C
  C216     1.0000 0.76540  0.31530  0.77680  Biso   1.000  C
  H139     1.0000 0.73590  0.31930  0.79440  Biso   1.000  H
  C217     1.0000 0.53730  0.51680  0.66360  Biso   1.000  C
  H140     1.0000 0.56510  0.52930  0.68010  Biso   1.000  H
  N22      1.0000 0.57940  0.53510  0.54670  Biso   1.000  N
  C218     1.0000 0.58760  0.53730  0.59330  Biso   1.000  C
  H141     1.0000 0.61710  0.54860  0.60790  Biso   1.000  H
  C219     1.0000 0.54120  0.51870  0.61760  Biso   1.000  C
  O55      1.0000 0.48600  0.48300  0.54440  Biso   1.000  O
  C220     1.0000 0.60670  0.57970  0.52560  Biso   1.000  C
  H142     1.0000 0.64160  0.58030  0.53660  Biso   1.000  H
  H143     1.0000 0.59030  0.61050  0.53660  Biso   1.000  H
  N23      1.0000 0.20471  0.60294  0.80415  Biso   1.000  N
  O56      1.0000 0.42865  0.52152  0.85053  Biso   1.000  O
  O57      1.0000 0.42961  0.52233  0.77157  Biso   1.000  O
  O58      1.0000 0.06545  0.48609  0.95138  Biso   1.000  O
  O59      1.0000 0.02718  0.56303  0.95132  Biso   1.000  O
  C221     1.0000 0.40857  0.52840  0.81127  Biso   1.000  C
  C222     1.0000 0.35449  0.54650  0.80966  Biso   1.000  C
  C223     1.0000 0.33107  0.55543  0.76723  Biso   1.000  C
  H144     1.0000 0.34850  0.54920  0.73930  Biso   1.000  H
  C224     1.0000 0.28145  0.57375  0.76554  Biso   1.000  C
  H145     1.0000 0.26600  0.57980  0.73660  Biso   1.000  H
  C225     1.0000 0.25530  0.58293  0.80685  Biso   1.000  C
  C226     1.0000 0.27900  0.57363  0.84933  Biso   1.000  C
  H146     1.0000 0.26170  0.57990  0.87730  Biso   1.000  H
  C227     1.0000 0.32743  0.55544  0.85107  Biso   1.000  C
  H147     1.0000 0.34250  0.54900  0.88010  Biso   1.000  H
  C228     1.0000 0.06033  0.53120  0.93771  Biso   1.000  C
  C229     1.0000 0.09642  0.54997  0.90037  Biso   1.000  C
  C230     1.0000 0.09683  0.59960  0.88734  Biso   1.000  C
  H148     1.0000 0.07270  0.62140  0.90000  Biso   1.000  H
  C231     1.0000 0.13285  0.61897  0.85519  Biso   1.000  C
  H149     1.0000 0.13320  0.65330  0.84750  Biso   1.000  H
  C232     1.0000 0.16801  0.58552  0.83522  Biso   1.000  C
  C233     1.0000 0.16609  0.53515  0.84760  Biso   1.000  C
  H150     1.0000 0.18920  0.51260  0.83430  Biso   1.000  H
  C234     1.0000 0.13078  0.51715  0.87931  Biso   1.000  C
  H151     1.0000 0.13000  0.48270  0.88660  Biso   1.000  H
  C235     1.0000 0.19808  0.64854  0.77693  Biso   1.000  C
  C236     1.0000 0.23460  0.68470  0.77680  Biso   1.000  C
  H152     1.0000 0.26410  0.68070  0.79440  Biso   1.000  H
  C237     1.0000 0.46270  0.48320  0.66360  Biso   1.000  C
  H153     1.0000 0.43490  0.47070  0.68010  Biso   1.000  H
  N24      1.0000 0.42060  0.46490  0.54670  Biso   1.000  N
  C238     1.0000 0.41240  0.46270  0.59330  Biso   1.000  C
  H154     1.0000 0.38290  0.45140  0.60790  Biso   1.000  H
  C239     1.0000 0.45880  0.48130  0.61760  Biso   1.000  C
  O60      1.0000 0.51400  0.51700  0.54440  Biso   1.000  O
  C240     1.0000 0.39330  0.42030  0.52560  Biso   1.000  C
  H155     1.0000 0.35840  0.41970  0.53660  Biso   1.000  H
  H156     1.0000 0.40970  0.38950  0.53660  Biso   1.000  H
  N25      1.0000 0.10294  0.70471  0.69585  Biso   1.000  N
  O61      1.0000 0.02152  0.92865  0.64947  Biso   1.000  O
  O62      1.0000 0.02233  0.92961  0.72843  Biso   1.000  O
  O63      1.0000 0.98609  0.56545  0.54862  Biso   1.000  O
  O64      1.0000 0.06303  0.52718  0.54868  Biso   1.000  O
  C241     1.0000 0.02840  0.90857  0.68873  Biso   1.000  C
  C242     1.0000 0.04650  0.85449  0.69034  Biso   1.000  C
  C243     1.0000 0.05543  0.83107  0.73277  Biso   1.000  C
  H157     1.0000 0.04920  0.84850  0.76070  Biso   1.000  H
  C244     1.0000 0.07375  0.78145  0.73446  Biso   1.000  C
  H158     1.0000 0.07980  0.76600  0.76340  Biso   1.000  H
  C245     1.0000 0.08293  0.75530  0.69315  Biso   1.000  C
  C246     1.0000 0.07363  0.77900  0.65067  Biso   1.000  C
  H159     1.0000 0.07990  0.76170  0.62270  Biso   1.000  H
  C247     1.0000 0.05544  0.82743  0.64893  Biso   1.000  C
  H160     1.0000 0.04900  0.84250  0.61990  Biso   1.000  H
  C248     1.0000 0.03120  0.56033  0.56229  Biso   1.000  C
  C249     1.0000 0.04997  0.59642  0.59963  Biso   1.000  C
  C250     1.0000 0.09960  0.59683  0.61266  Biso   1.000  C
  H161     1.0000 0.12140  0.57270  0.60000  Biso   1.000  H
  C251     1.0000 0.11897  0.63285  0.64481  Biso   1.000  C
  H162     1.0000 0.15330  0.63320  0.65250  Biso   1.000  H
  C252     1.0000 0.08552  0.66801  0.66478  Biso   1.000  C
  C253     1.0000 0.03515  0.66609  0.65240  Biso   1.000  C
  H163     1.0000 0.01260  0.68920  0.66570  Biso   1.000  H
  C254     1.0000 0.01715  0.63078  0.62069  Biso   1.000  C
  H164     1.0000 0.98270  0.63000  0.61340  Biso   1.000  H
  C255     1.0000 0.14854  0.69808  0.72307  Biso   1.000  C
  C256     1.0000 0.18470  0.73460  0.72320  Biso   1.000  C
  H165     1.0000 0.18070  0.76410  0.70560  Biso   1.000  H
  C257     1.0000 0.98320  0.96270  0.83640  Biso   1.000  C
  H166     1.0000 0.97070  0.93490  0.81990  Biso   1.000  H
  N26      1.0000 0.96490  0.92060  0.95330  Biso   1.000  N
  C258     1.0000 0.96270  0.91240  0.90670  Biso   1.000  C
  H167     1.0000 0.95140  0.88290  0.89210  Biso   1.000  H
  C259     1.0000 0.98130  0.95880  0.88240  Biso   1.000  C
  O65      1.0000 0.01700  0.01400  0.95560  Biso   1.000  O
  C260     1.0000 0.92030  0.89330  0.97440  Biso   1.000  C
  H168     1.0000 0.91970  0.85840  0.96340  Biso   1.000  H
  H169     1.0000 0.88950  0.90970  0.96340  Biso   1.000  H
  N27      1.0000 0.89706  0.29529  0.69585  Biso   1.000  N
  O66      1.0000 0.97848  0.07135  0.64947  Biso   1.000  O
  O67      1.0000 0.97767  0.07039  0.72843  Biso   1.000  O
  O68      1.0000 0.01391  0.43455  0.54862  Biso   1.000  O
  O69      1.0000 0.93697  0.47282  0.54868  Biso   1.000  O
  C261     1.0000 0.97160  0.09143  0.68873  Biso   1.000  C
  C262     1.0000 0.95350  0.14551  0.69034  Biso   1.000  C
  C263     1.0000 0.94457  0.16893  0.73277  Biso   1.000  C
  H170     1.0000 0.95080  0.15150  0.76070  Biso   1.000  H
  C264     1.0000 0.92625  0.21855  0.73446  Biso   1.000  C
  H171     1.0000 0.92020  0.23400  0.76340  Biso   1.000  H
  C265     1.0000 0.91707  0.24470  0.69315  Biso   1.000  C
  C266     1.0000 0.92637  0.22100  0.65067  Biso   1.000  C
  H172     1.0000 0.92010  0.23830  0.62270  Biso   1.000  H
  C267     1.0000 0.94456  0.17257  0.64893  Biso   1.000  C
  H173     1.0000 0.95100  0.15750  0.61990  Biso   1.000  H
  C268     1.0000 0.96880  0.43967  0.56229  Biso   1.000  C
  C269     1.0000 0.95003  0.40358  0.59963  Biso   1.000  C
  C270     1.0000 0.90040  0.40317  0.61266  Biso   1.000  C
  H174     1.0000 0.87860  0.42730  0.60000  Biso   1.000  H
  C271     1.0000 0.88103  0.36715  0.64481  Biso   1.000  C
  H175     1.0000 0.84670  0.36680  0.65250  Biso   1.000  H
  C272     1.0000 0.91448  0.33199  0.66478  Biso   1.000  C
  C273     1.0000 0.96485  0.33391  0.65240  Biso   1.000  C
  H176     1.0000 0.98740  0.31080  0.66570  Biso   1.000  H
  C274     1.0000 0.98285  0.36922  0.62069  Biso   1.000  C
  H177     1.0000 0.01730  0.37000  0.61340  Biso   1.000  H
  C275     1.0000 0.85146  0.30192  0.72307  Biso   1.000  C
  C276     1.0000 0.81530  0.26540  0.72320  Biso   1.000  C
  H178     1.0000 0.81930  0.23590  0.70560  Biso   1.000  H
  C277     1.0000 0.01680  0.03730  0.83640  Biso   1.000  C
  H179     1.0000 0.02930  0.06510  0.81990  Biso   1.000  H
  N28      1.0000 0.03510  0.07940  0.95330  Biso   1.000  N
  C278     1.0000 0.03730  0.08760  0.90670  Biso   1.000  C
  H180     1.0000 0.04860  0.11710  0.89210  Biso   1.000  H
  C279     1.0000 0.01870  0.04120  0.88240  Biso   1.000  C
  O70      1.0000 0.98300  0.98600  0.95560  Biso   1.000  O
  C280     1.0000 0.07970  0.10670  0.97440  Biso   1.000  C
  H181     1.0000 0.08030  0.14160  0.96340  Biso   1.000  H
  H182     1.0000 0.11050  0.09030  0.96340  Biso   1.000  H
  N29      1.0000 0.70471  0.89706  0.69585  Biso   1.000  N
  O71      1.0000 0.92865  0.97848  0.64947  Biso   1.000  O
  O72      1.0000 0.92961  0.97767  0.72843  Biso   1.000  O
  O73      1.0000 0.56545  0.01391  0.54862  Biso   1.000  O
  O74      1.0000 0.52718  0.93697  0.54868  Biso   1.000  O
  C281     1.0000 0.90857  0.97160  0.68873  Biso   1.000  C
  C282     1.0000 0.85449  0.95350  0.69034  Biso   1.000  C
  C283     1.0000 0.83107  0.94457  0.73277  Biso   1.000  C
  H183     1.0000 0.84850  0.95080  0.76070  Biso   1.000  H
  C284     1.0000 0.78145  0.92625  0.73446  Biso   1.000  C
  H184     1.0000 0.76600  0.92020  0.76340  Biso   1.000  H
  C285     1.0000 0.75530  0.91707  0.69315  Biso   1.000  C
  C286     1.0000 0.77900  0.92637  0.65067  Biso   1.000  C
  H185     1.0000 0.76170  0.92010  0.62270  Biso   1.000  H
  C287     1.0000 0.82743  0.94456  0.64893  Biso   1.000  C
  H186     1.0000 0.84250  0.95100  0.61990  Biso   1.000  H
  C288     1.0000 0.56033  0.96880  0.56229  Biso   1.000  C
  C289     1.0000 0.59642  0.95003  0.59963  Biso   1.000  C
  C290     1.0000 0.59683  0.90040  0.61266  Biso   1.000  C
  H187     1.0000 0.57270  0.87860  0.60000  Biso   1.000  H
  C291     1.0000 0.63285  0.88103  0.64481  Biso   1.000  C
  H188     1.0000 0.63320  0.84670  0.65250  Biso   1.000  H
  C292     1.0000 0.66801  0.91448  0.66478  Biso   1.000  C
  C293     1.0000 0.66609  0.96485  0.65240  Biso   1.000  C
  H189     1.0000 0.68920  0.98740  0.66570  Biso   1.000  H
  C294     1.0000 0.63078  0.98285  0.62069  Biso   1.000  C
  H190     1.0000 0.63000  0.01730  0.61340  Biso   1.000  H
  C295     1.0000 0.69808  0.85146  0.72307  Biso   1.000  C
  C296     1.0000 0.73460  0.81530  0.72320  Biso   1.000  C
  H191     1.0000 0.76410  0.81930  0.70560  Biso   1.000  H
  C297     1.0000 0.96270  0.01680  0.83640  Biso   1.000  C
  H192     1.0000 0.93490  0.02930  0.81990  Biso   1.000  H
  N30      1.0000 0.92060  0.03510  0.95330  Biso   1.000  N
  C298     1.0000 0.91240  0.03730  0.90670  Biso   1.000  C
  H193     1.0000 0.88290  0.04860  0.89210  Biso   1.000  H
  C299     1.0000 0.95880  0.01870  0.88240  Biso   1.000  C
  O75      1.0000 0.01400  0.98300  0.95560  Biso   1.000  O
  C300     1.0000 0.89330  0.07970  0.97440  Biso   1.000  C
  H194     1.0000 0.85840  0.08030  0.96340  Biso   1.000  H
  H195     1.0000 0.90970  0.11050  0.96340  Biso   1.000  H
  N31      1.0000 0.29529  0.10294  0.69585  Biso   1.000  N
  O76      1.0000 0.07135  0.02152  0.64947  Biso   1.000  O
  O77      1.0000 0.07039  0.02233  0.72843  Biso   1.000  O
  O78      1.0000 0.43455  0.98609  0.54862  Biso   1.000  O
  O79      1.0000 0.47282  0.06303  0.54868  Biso   1.000  O
  C301     1.0000 0.09143  0.02840  0.68873  Biso   1.000  C
  C302     1.0000 0.14551  0.04650  0.69034  Biso   1.000  C
  C303     1.0000 0.16893  0.05543  0.73277  Biso   1.000  C
  H196     1.0000 0.15150  0.04920  0.76070  Biso   1.000  H
  C304     1.0000 0.21855  0.07375  0.73446  Biso   1.000  C
  H197     1.0000 0.23400  0.07980  0.76340  Biso   1.000  H
  C305     1.0000 0.24470  0.08293  0.69315  Biso   1.000  C
  C306     1.0000 0.22100  0.07363  0.65067  Biso   1.000  C
  H198     1.0000 0.23830  0.07990  0.62270  Biso   1.000  H
  C307     1.0000 0.17257  0.05544  0.64893  Biso   1.000  C
  H199     1.0000 0.15750  0.04900  0.61990  Biso   1.000  H
  C308     1.0000 0.43967  0.03120  0.56229  Biso   1.000  C
  C309     1.0000 0.40358  0.04997  0.59963  Biso   1.000  C
  C310     1.0000 0.40317  0.09960  0.61266  Biso   1.000  C
  H200     1.0000 0.42730  0.12140  0.60000  Biso   1.000  H
  C311     1.0000 0.36715  0.11897  0.64481  Biso   1.000  C
  H201     1.0000 0.36680  0.15330  0.65250  Biso   1.000  H
  C312     1.0000 0.33199  0.08552  0.66478  Biso   1.000  C
  C313     1.0000 0.33391  0.03515  0.65240  Biso   1.000  C
  H202     1.0000 0.31080  0.01260  0.66570  Biso   1.000  H
  C314     1.0000 0.36922  0.01715  0.62069  Biso   1.000  C
  H203     1.0000 0.37000  0.98270  0.61340  Biso   1.000  H
  C315     1.0000 0.30192  0.14854  0.72307  Biso   1.000  C
  C316     1.0000 0.26540  0.18470  0.72320  Biso   1.000  C
  H204     1.0000 0.23590  0.18070  0.70560  Biso   1.000  H
  C317     1.0000 0.03730  0.98320  0.83640  Biso   1.000  C
  H205     1.0000 0.06510  0.97070  0.81990  Biso   1.000  H
  N32      1.0000 0.07940  0.96490  0.95330  Biso   1.000  N
  C318     1.0000 0.08760  0.96270  0.90670  Biso   1.000  C
  H206     1.0000 0.11710  0.95140  0.89210  Biso   1.000  H
  C319     1.0000 0.04120  0.98130  0.88240  Biso   1.000  C
  O80      1.0000 0.98600  0.01700  0.95560  Biso   1.000  O
  C320     1.0000 0.10670  0.92030  0.97440  Biso   1.000  C
  H207     1.0000 0.14160  0.91970  0.96340  Biso   1.000  H
  H208     1.0000 0.09030  0.88950  0.96340  Biso   1.000  H
  Cu1      1.0000 0.50000  0.50000  0.14266  Biso   1.000  Cu
  Cu2      1.0000 0.50000  0.50000  0.23598  Biso   1.000  Cu
  N33      1.0000 0.50000  0.50000  0.31069  Biso   1.000  N
  C321     1.0000 0.50000  0.50000  0.40730  Biso   1.000  C
  Cu3      1.0000 0.00000  0.00000  0.35734  Biso   1.000  Cu
  Cu4      1.0000 0.00000  0.00000  0.26402  Biso   1.000  Cu
  N34      1.0000 0.00000  0.00000  0.18931  Biso   1.000  N
  C322     1.0000 0.00000  0.00000  0.09270  Biso   1.000  C
  Cu5      1.0000 0.50000  0.50000  0.85734  Biso   1.000  Cu
  Cu6      1.0000 0.50000  0.50000  0.76402  Biso   1.000  Cu
  N35      1.0000 0.50000  0.50000  0.68931  Biso   1.000  N
  C323     1.0000 0.50000  0.50000  0.59270  Biso   1.000  C
  Cu7      1.0000 0.00000  0.00000  0.64266  Biso   1.000  Cu
  Cu8      1.0000 0.00000  0.00000  0.73598  Biso   1.000  Cu
  N36      1.0000 0.00000  0.00000  0.81069  Biso   1.000  N
  C324     1.0000 0.00000  0.00000  0.90730  Biso   1.000  C
  Cu9      1.0000 0.45549  0.97732  0.00000  Biso   1.000  Cu
  Cu10     1.0000 0.54451  0.02268  0.00000  Biso   1.000  Cu
  Cu11     1.0000 0.02268  0.45549  0.00000  Biso   1.000  Cu
  Cu12     1.0000 0.97732  0.54451  0.00000  Biso   1.000  Cu
  Cu13     1.0000 0.04451  0.47732  0.50000  Biso   1.000  Cu
  Cu14     1.0000 0.95549  0.52268  0.50000  Biso   1.000  Cu
  Cu15     1.0000 0.47732  0.95549  0.50000  Biso   1.000  Cu
  Cu16     1.0000 0.52268  0.04451  0.50000  Biso   1.000  Cu
  C325     1.0000 0.72700  0.77300  0.25000  Biso   1.000  C
  H209     1.0000 0.75200  0.74800  0.25000  Biso   1.000  H
  C326     1.0000 0.65498  0.84502  0.25000  Biso   1.000  C
  H210     1.0000 0.63000  0.87000  0.25000  Biso   1.000  H
  C327     1.0000 0.27300  0.22700  0.25000  Biso   1.000  C
  H211     1.0000 0.24800  0.25200  0.25000  Biso   1.000  H
  C328     1.0000 0.34502  0.15498  0.25000  Biso   1.000  C
  H212     1.0000 0.37000  0.13000  0.25000  Biso   1.000  H
  C329     1.0000 0.22700  0.72700  0.25000  Biso   1.000  C
  H213     1.0000 0.25200  0.75200  0.25000  Biso   1.000  H
  C330     1.0000 0.15498  0.65498  0.25000  Biso   1.000  C
  H214     1.0000 0.13000  0.63000  0.25000  Biso   1.000  H
  C331     1.0000 0.77300  0.27300  0.25000  Biso   1.000  C
  H215     1.0000 0.74800  0.24800  0.25000  Biso   1.000  H
  C332     1.0000 0.84502  0.34502  0.25000  Biso   1.000  C
  H216     1.0000 0.87000  0.37000  0.25000  Biso   1.000  H
  C333     1.0000 0.27300  0.22700  0.75000  Biso   1.000  C
  H217     1.0000 0.24800  0.25200  0.75000  Biso   1.000  H
  C334     1.0000 0.34502  0.15498  0.75000  Biso   1.000  C
  H218     1.0000 0.37000  0.13000  0.75000  Biso   1.000  H
  C335     1.0000 0.72700  0.77300  0.75000  Biso   1.000  C
  H219     1.0000 0.75200  0.74800  0.75000  Biso   1.000  H
  C336     1.0000 0.65498  0.84502  0.75000  Biso   1.000  C
  H220     1.0000 0.63000  0.87000  0.75000  Biso   1.000  H
  C337     1.0000 0.77300  0.27300  0.75000  Biso   1.000  C
  H221     1.0000 0.74800  0.24800  0.75000  Biso   1.000  H
  C338     1.0000 0.84502  0.34502  0.75000  Biso   1.000  C
  H222     1.0000 0.87000  0.37000  0.75000  Biso   1.000  H
  C339     1.0000 0.22700  0.72700  0.75000  Biso   1.000  C
  H223     1.0000 0.25200  0.75200  0.75000  Biso   1.000  H
  C340     1.0000 0.15498  0.65498  0.75000  Biso   1.000  C
  H224     1.0000 0.13000  0.63000  0.75000  Biso   1.000  H
  Cu17     1.0000 0.47940  0.52860  0.50000  Biso   1.000  Cu
  Cu18     1.0000 0.52060  0.47140  0.50000  Biso   1.000  Cu
  Cu19     1.0000 0.47140  0.47940  0.50000  Biso   1.000  Cu
  Cu20     1.0000 0.52860  0.52060  0.50000  Biso   1.000  Cu
  Cu21     1.0000 0.02060  0.02860  0.00000  Biso   1.000  Cu
  Cu22     1.0000 0.97940  0.97140  0.00000  Biso   1.000  Cu
  Cu23     1.0000 0.02860  0.97940  0.00000  Biso   1.000  Cu
  Cu24     1.0000 0.97140  0.02060  0.00000  Biso   1.000  Cu
