data_image0
_cell_length_a       26.38
_cell_length_b       26.38
_cell_length_c       28.24
_cell_angle_alpha    90
_cell_angle_beta     90
_cell_angle_gamma    90

_symmetry_space_group_name_H-M    "P 1"
_symmetry_int_tables_number       1

loop_
  _symmetry_equiv_pos_as_xyz
  'x, y, z'

loop_
  _atom_site_label
  _atom_site_occupancy
  _atom_site_fract_x
  _atom_site_fract_y
  _atom_site_fract_z
  _atom_site_thermal_displace_type
  _atom_site_B_iso_or_equiv
  _atom_site_type_symbol
  N1       1.0000 0.60364  0.79418  0.19573  Biso   1.000  N
  O1       1.0000 0.52127  0.57122  0.14991  Biso   1.000  O
  O2       1.0000 0.52254  0.57046  0.22902  Biso   1.000  O
  O3       1.0000 0.48696  0.93478  0.04943  Biso   1.000  O
  O4       1.0000 0.56271  0.97266  0.04869  Biso   1.000  O
  C1       1.0000 0.52863  0.59138  0.18947  Biso   1.000  C
  C2       1.0000 0.54678  0.64527  0.19066  Biso   1.000  C
  C3       1.0000 0.55548  0.66896  0.23339  Biso   1.000  C
  H1       1.0000 0.54880  0.65180  0.26150  Biso   1.000  H
  C4       1.0000 0.57425  0.71848  0.23491  Biso   1.000  C
  H2       1.0000 0.58070  0.73390  0.26390  Biso   1.000  H
  C5       1.0000 0.58312  0.74412  0.19418  Biso   1.000  C
  C6       1.0000 0.57312  0.72056  0.15113  Biso   1.000  C
  H3       1.0000 0.57910  0.73790  0.12300  Biso   1.000  H
  C7       1.0000 0.55468  0.67223  0.14972  Biso   1.000  C
  H4       1.0000 0.54740  0.65740  0.12060  Biso   1.000  H
  C8       1.0000 0.53202  0.93966  0.06311  Biso   1.000  C
  C9       1.0000 0.55005  0.90297  0.09896  Biso   1.000  C
  C10      1.0000 0.60046  0.90186  0.11271  Biso   1.000  C
  H5       1.0000 0.62260  0.92560  0.09990  Biso   1.000  H
  C11      1.0000 0.61901  0.86708  0.14459  Biso   1.000  C
  H6       1.0000 0.65310  0.86710  0.15280  Biso   1.000  H
  C12      1.0000 0.58588  0.83179  0.16437  Biso   1.000  C
  C13      1.0000 0.53490  0.83371  0.15232  Biso   1.000  C
  H7       1.0000 0.51220  0.81110  0.16610  Biso   1.000  H
  C14      1.0000 0.51783  0.86865  0.12023  Biso   1.000  C
  H8       1.0000 0.48360  0.86930  0.11260  Biso   1.000  H
  C15      1.0000 0.64881  0.80114  0.22345  Biso   1.000  C
  C16      1.0000 0.68533  0.76542  0.22420  Biso   1.000  C
  H9       1.0000 0.68120  0.73580  0.20670  Biso   1.000  H
  C17      1.0000 0.48570  0.53910  0.33670  Biso   1.000  C
  H10      1.0000 0.47460  0.56730  0.31990  Biso   1.000  H
  N2       1.0000 0.47490  0.58870  0.45330  Biso   1.000  N
  C18      1.0000 0.47340  0.59250  0.40830  Biso   1.000  C
  H11      1.0000 0.46590  0.62230  0.39220  Biso   1.000  H
  C19      1.0000 0.48520  0.54280  0.38430  Biso   1.000  C
  O5       1.0000 0.51450  0.51480  0.45650  Biso   1.000  O
  C20      1.0000 0.44070  0.63100  0.47410  Biso   1.000  C
  H12      1.0000 0.45260  0.66370  0.46290  Biso   1.000  H
  H13      1.0000 0.40630  0.62630  0.46290  Biso   1.000  H
  N3       1.0000 0.39636  0.20582  0.19573  Biso   1.000  N
  O6       1.0000 0.47873  0.42878  0.14991  Biso   1.000  O
  O7       1.0000 0.47746  0.42954  0.22902  Biso   1.000  O
  O8       1.0000 0.51304  0.06522  0.04943  Biso   1.000  O
  O9       1.0000 0.43729  0.02734  0.04869  Biso   1.000  O
  C21      1.0000 0.47137  0.40862  0.18947  Biso   1.000  C
  C22      1.0000 0.45322  0.35473  0.19066  Biso   1.000  C
  C23      1.0000 0.44452  0.33104  0.23339  Biso   1.000  C
  H14      1.0000 0.45120  0.34820  0.26150  Biso   1.000  H
  C24      1.0000 0.42575  0.28152  0.23491  Biso   1.000  C
  H15      1.0000 0.41930  0.26610  0.26390  Biso   1.000  H
  C25      1.0000 0.41688  0.25588  0.19418  Biso   1.000  C
  C26      1.0000 0.42688  0.27944  0.15113  Biso   1.000  C
  H16      1.0000 0.42090  0.26210  0.12300  Biso   1.000  H
  C27      1.0000 0.44532  0.32777  0.14972  Biso   1.000  C
  H17      1.0000 0.45260  0.34260  0.12060  Biso   1.000  H
  C28      1.0000 0.46798  0.06034  0.06311  Biso   1.000  C
  C29      1.0000 0.44995  0.09703  0.09896  Biso   1.000  C
  C30      1.0000 0.39954  0.09814  0.11271  Biso   1.000  C
  H18      1.0000 0.37740  0.07440  0.09990  Biso   1.000  H
  C31      1.0000 0.38099  0.13292  0.14459  Biso   1.000  C
  H19      1.0000 0.34690  0.13290  0.15280  Biso   1.000  H
  C32      1.0000 0.41412  0.16821  0.16437  Biso   1.000  C
  C33      1.0000 0.46510  0.16629  0.15232  Biso   1.000  C
  H20      1.0000 0.48780  0.18890  0.16610  Biso   1.000  H
  C34      1.0000 0.48217  0.13135  0.12023  Biso   1.000  C
  H21      1.0000 0.51640  0.13070  0.11260  Biso   1.000  H
  C35      1.0000 0.35119  0.19886  0.22345  Biso   1.000  C
  C36      1.0000 0.31467  0.23458  0.22420  Biso   1.000  C
  H22      1.0000 0.31880  0.26420  0.20670  Biso   1.000  H
  C37      1.0000 0.51430  0.46090  0.33670  Biso   1.000  C
  H23      1.0000 0.52540  0.43270  0.31990  Biso   1.000  H
  N4       1.0000 0.52510  0.41130  0.45330  Biso   1.000  N
  C38      1.0000 0.52660  0.40750  0.40830  Biso   1.000  C
  H24      1.0000 0.53410  0.37770  0.39220  Biso   1.000  H
  C39      1.0000 0.51480  0.45720  0.38430  Biso   1.000  C
  O10      1.0000 0.48550  0.48520  0.45650  Biso   1.000  O
  C40      1.0000 0.55930  0.36900  0.47410  Biso   1.000  C
  H25      1.0000 0.54740  0.33630  0.46290  Biso   1.000  H
  H26      1.0000 0.59370  0.37370  0.46290  Biso   1.000  H
  N5       1.0000 0.20582  0.60364  0.19573  Biso   1.000  N
  O11      1.0000 0.42878  0.52127  0.14991  Biso   1.000  O
  O12      1.0000 0.42954  0.52254  0.22902  Biso   1.000  O
  O13      1.0000 0.06522  0.48696  0.04943  Biso   1.000  O
  O14      1.0000 0.02734  0.56271  0.04869  Biso   1.000  O
  C41      1.0000 0.40862  0.52863  0.18947  Biso   1.000  C
  C42      1.0000 0.35473  0.54678  0.19066  Biso   1.000  C
  C43      1.0000 0.33104  0.55548  0.23339  Biso   1.000  C
  H27      1.0000 0.34820  0.54880  0.26150  Biso   1.000  H
  C44      1.0000 0.28152  0.57425  0.23491  Biso   1.000  C
  H28      1.0000 0.26610  0.58070  0.26390  Biso   1.000  H
  C45      1.0000 0.25588  0.58312  0.19418  Biso   1.000  C
  C46      1.0000 0.27944  0.57312  0.15113  Biso   1.000  C
  H29      1.0000 0.26210  0.57910  0.12300  Biso   1.000  H
  C47      1.0000 0.32777  0.55468  0.14972  Biso   1.000  C
  H30      1.0000 0.34260  0.54740  0.12060  Biso   1.000  H
  C48      1.0000 0.06034  0.53202  0.06311  Biso   1.000  C
  C49      1.0000 0.09703  0.55005  0.09896  Biso   1.000  C
  C50      1.0000 0.09814  0.60046  0.11271  Biso   1.000  C
  H31      1.0000 0.07440  0.62260  0.09990  Biso   1.000  H
  C51      1.0000 0.13292  0.61901  0.14459  Biso   1.000  C
  H32      1.0000 0.13290  0.65310  0.15280  Biso   1.000  H
  C52      1.0000 0.16821  0.58588  0.16437  Biso   1.000  C
  C53      1.0000 0.16629  0.53490  0.15232  Biso   1.000  C
  H33      1.0000 0.18890  0.51220  0.16610  Biso   1.000  H
  C54      1.0000 0.13135  0.51783  0.12023  Biso   1.000  C
  H34      1.0000 0.13070  0.48360  0.11260  Biso   1.000  H
  C55      1.0000 0.19886  0.64881  0.22345  Biso   1.000  C
  C56      1.0000 0.23458  0.68533  0.22420  Biso   1.000  C
  H35      1.0000 0.26420  0.68120  0.20670  Biso   1.000  H
  C57      1.0000 0.46090  0.48570  0.33670  Biso   1.000  C
  H36      1.0000 0.43270  0.47460  0.31990  Biso   1.000  H
  N6       1.0000 0.41130  0.47490  0.45330  Biso   1.000  N
  C58      1.0000 0.40750  0.47340  0.40830  Biso   1.000  C
  H37      1.0000 0.37770  0.46590  0.39220  Biso   1.000  H
  C59      1.0000 0.45720  0.48520  0.38430  Biso   1.000  C
  O15      1.0000 0.48520  0.51450  0.45650  Biso   1.000  O
  C60      1.0000 0.36900  0.44070  0.47410  Biso   1.000  C
  H38      1.0000 0.33630  0.45260  0.46290  Biso   1.000  H
  H39      1.0000 0.37370  0.40630  0.46290  Biso   1.000  H
  N7       1.0000 0.79418  0.39636  0.19573  Biso   1.000  N
  O16      1.0000 0.57122  0.47873  0.14991  Biso   1.000  O
  O17      1.0000 0.57046  0.47746  0.22902  Biso   1.000  O
  O18      1.0000 0.93478  0.51304  0.04943  Biso   1.000  O
  O19      1.0000 0.97266  0.43729  0.04869  Biso   1.000  O
  C61      1.0000 0.59138  0.47137  0.18947  Biso   1.000  C
  C62      1.0000 0.64527  0.45322  0.19066  Biso   1.000  C
  C63      1.0000 0.66896  0.44452  0.23339  Biso   1.000  C
  H40      1.0000 0.65180  0.45120  0.26150  Biso   1.000  H
  C64      1.0000 0.71848  0.42575  0.23491  Biso   1.000  C
  H41      1.0000 0.73390  0.41930  0.26390  Biso   1.000  H
  C65      1.0000 0.74412  0.41688  0.19418  Biso   1.000  C
  C66      1.0000 0.72056  0.42688  0.15113  Biso   1.000  C
  H42      1.0000 0.73790  0.42090  0.12300  Biso   1.000  H
  C67      1.0000 0.67223  0.44532  0.14972  Biso   1.000  C
  H43      1.0000 0.65740  0.45260  0.12060  Biso   1.000  H
  C68      1.0000 0.93966  0.46798  0.06311  Biso   1.000  C
  C69      1.0000 0.90297  0.44995  0.09896  Biso   1.000  C
  C70      1.0000 0.90186  0.39954  0.11271  Biso   1.000  C
  H44      1.0000 0.92560  0.37740  0.09990  Biso   1.000  H
  C71      1.0000 0.86708  0.38099  0.14459  Biso   1.000  C
  H45      1.0000 0.86710  0.34690  0.15280  Biso   1.000  H
  C72      1.0000 0.83179  0.41412  0.16437  Biso   1.000  C
  C73      1.0000 0.83371  0.46510  0.15232  Biso   1.000  C
  H46      1.0000 0.81110  0.48780  0.16610  Biso   1.000  H
  C74      1.0000 0.86865  0.48217  0.12023  Biso   1.000  C
  H47      1.0000 0.86930  0.51640  0.11260  Biso   1.000  H
  C75      1.0000 0.80114  0.35119  0.22345  Biso   1.000  C
  C76      1.0000 0.76542  0.31467  0.22420  Biso   1.000  C
  H48      1.0000 0.73580  0.31880  0.20670  Biso   1.000  H
  C77      1.0000 0.53910  0.51430  0.33670  Biso   1.000  C
  H49      1.0000 0.56730  0.52540  0.31990  Biso   1.000  H
  N8       1.0000 0.58870  0.52510  0.45330  Biso   1.000  N
  C78      1.0000 0.59250  0.52660  0.40830  Biso   1.000  C
  H50      1.0000 0.62230  0.53410  0.39220  Biso   1.000  H
  C79      1.0000 0.54280  0.51480  0.38430  Biso   1.000  C
  O20      1.0000 0.51480  0.48550  0.45650  Biso   1.000  O
  C80      1.0000 0.63100  0.55930  0.47410  Biso   1.000  C
  H51      1.0000 0.66370  0.54740  0.46290  Biso   1.000  H
  H52      1.0000 0.62630  0.59370  0.46290  Biso   1.000  H
  N9       1.0000 0.89636  0.29418  0.30427  Biso   1.000  N
  O21      1.0000 0.97873  0.07122  0.35009  Biso   1.000  O
  O22      1.0000 0.97746  0.07046  0.27098  Biso   1.000  O
  O23      1.0000 0.01304  0.43478  0.45057  Biso   1.000  O
  O24      1.0000 0.93729  0.47266  0.45131  Biso   1.000  O
  C81      1.0000 0.97137  0.09138  0.31053  Biso   1.000  C
  C82      1.0000 0.95322  0.14527  0.30934  Biso   1.000  C
  C83      1.0000 0.94452  0.16896  0.26661  Biso   1.000  C
  H53      1.0000 0.95120  0.15180  0.23850  Biso   1.000  H
  C84      1.0000 0.92575  0.21848  0.26509  Biso   1.000  C
  H54      1.0000 0.91930  0.23390  0.23610  Biso   1.000  H
  C85      1.0000 0.91688  0.24412  0.30582  Biso   1.000  C
  C86      1.0000 0.92688  0.22056  0.34887  Biso   1.000  C
  H55      1.0000 0.92090  0.23790  0.37700  Biso   1.000  H
  C87      1.0000 0.94532  0.17223  0.35028  Biso   1.000  C
  H56      1.0000 0.95260  0.15740  0.37940  Biso   1.000  H
  C88      1.0000 0.96798  0.43966  0.43689  Biso   1.000  C
  C89      1.0000 0.94995  0.40297  0.40104  Biso   1.000  C
  C90      1.0000 0.89954  0.40186  0.38729  Biso   1.000  C
  H57      1.0000 0.87740  0.42560  0.40010  Biso   1.000  H
  C91      1.0000 0.88099  0.36708  0.35541  Biso   1.000  C
  H58      1.0000 0.84690  0.36710  0.34720  Biso   1.000  H
  C92      1.0000 0.91412  0.33179  0.33563  Biso   1.000  C
  C93      1.0000 0.96510  0.33371  0.34768  Biso   1.000  C
  H59      1.0000 0.98780  0.31110  0.33390  Biso   1.000  H
  C94      1.0000 0.98217  0.36865  0.37977  Biso   1.000  C
  H60      1.0000 0.01640  0.36930  0.38740  Biso   1.000  H
  C95      1.0000 0.85119  0.30114  0.27655  Biso   1.000  C
  C96      1.0000 0.81467  0.26542  0.27580  Biso   1.000  C
  H61      1.0000 0.81880  0.23580  0.29330  Biso   1.000  H
  C97      1.0000 0.01430  0.03910  0.16330  Biso   1.000  C
  H62      1.0000 0.02540  0.06730  0.18010  Biso   1.000  H
  N10      1.0000 0.02510  0.08870  0.04670  Biso   1.000  N
  C98      1.0000 0.02660  0.09250  0.09170  Biso   1.000  C
  H63      1.0000 0.03410  0.12230  0.10780  Biso   1.000  H
  C99      1.0000 0.01480  0.04280  0.11570  Biso   1.000  C
  O25      1.0000 0.98550  0.01480  0.04350  Biso   1.000  O
  C100     1.0000 0.05930  0.13100  0.02590  Biso   1.000  C
  H64      1.0000 0.04740  0.16370  0.03710  Biso   1.000  H
  H65      1.0000 0.09370  0.12630  0.03710  Biso   1.000  H
  N11      1.0000 0.10364  0.70582  0.30427  Biso   1.000  N
  O26      1.0000 0.02127  0.92878  0.35009  Biso   1.000  O
  O27      1.0000 0.02254  0.92954  0.27098  Biso   1.000  O
  O28      1.0000 0.98696  0.56522  0.45057  Biso   1.000  O
  O29      1.0000 0.06271  0.52734  0.45131  Biso   1.000  O
  C101     1.0000 0.02863  0.90862  0.31053  Biso   1.000  C
  C102     1.0000 0.04678  0.85473  0.30934  Biso   1.000  C
  C103     1.0000 0.05548  0.83104  0.26661  Biso   1.000  C
  H66      1.0000 0.04880  0.84820  0.23850  Biso   1.000  H
  C104     1.0000 0.07425  0.78152  0.26509  Biso   1.000  C
  H67      1.0000 0.08070  0.76610  0.23610  Biso   1.000  H
  C105     1.0000 0.08312  0.75588  0.30582  Biso   1.000  C
  C106     1.0000 0.07312  0.77944  0.34887  Biso   1.000  C
  H68      1.0000 0.07910  0.76210  0.37700  Biso   1.000  H
  C107     1.0000 0.05468  0.82777  0.35028  Biso   1.000  C
  H69      1.0000 0.04740  0.84260  0.37940  Biso   1.000  H
  C108     1.0000 0.03202  0.56034  0.43689  Biso   1.000  C
  C109     1.0000 0.05005  0.59703  0.40104  Biso   1.000  C
  C110     1.0000 0.10046  0.59814  0.38729  Biso   1.000  C
  H70      1.0000 0.12260  0.57440  0.40010  Biso   1.000  H
  C111     1.0000 0.11901  0.63292  0.35541  Biso   1.000  C
  H71      1.0000 0.15310  0.63290  0.34720  Biso   1.000  H
  C112     1.0000 0.08588  0.66821  0.33563  Biso   1.000  C
  C113     1.0000 0.03490  0.66629  0.34768  Biso   1.000  C
  H72      1.0000 0.01220  0.68890  0.33390  Biso   1.000  H
  C114     1.0000 0.01783  0.63135  0.37977  Biso   1.000  C
  H73      1.0000 0.98360  0.63070  0.38740  Biso   1.000  H
  C115     1.0000 0.14881  0.69886  0.27655  Biso   1.000  C
  C116     1.0000 0.18533  0.73458  0.27580  Biso   1.000  C
  H74      1.0000 0.18120  0.76420  0.29330  Biso   1.000  H
  C117     1.0000 0.98570  0.96090  0.16330  Biso   1.000  C
  H75      1.0000 0.97460  0.93270  0.18010  Biso   1.000  H
  N12      1.0000 0.97490  0.91130  0.04670  Biso   1.000  N
  C118     1.0000 0.97340  0.90750  0.09170  Biso   1.000  C
  H76      1.0000 0.96590  0.87770  0.10780  Biso   1.000  H
  C119     1.0000 0.98520  0.95720  0.11570  Biso   1.000  C
  O30      1.0000 0.01450  0.98520  0.04350  Biso   1.000  O
  C120     1.0000 0.94070  0.86900  0.02590  Biso   1.000  C
  H77      1.0000 0.95260  0.83630  0.03710  Biso   1.000  H
  H78      1.0000 0.90630  0.87370  0.03710  Biso   1.000  H
  N13      1.0000 0.29418  0.10364  0.30427  Biso   1.000  N
  O31      1.0000 0.07122  0.02127  0.35009  Biso   1.000  O
  O32      1.0000 0.07046  0.02254  0.27098  Biso   1.000  O
  O33      1.0000 0.43478  0.98696  0.45057  Biso   1.000  O
  O34      1.0000 0.47266  0.06271  0.45131  Biso   1.000  O
  C121     1.0000 0.09138  0.02863  0.31053  Biso   1.000  C
  C122     1.0000 0.14527  0.04678  0.30934  Biso   1.000  C
  C123     1.0000 0.16896  0.05548  0.26661  Biso   1.000  C
  H79      1.0000 0.15180  0.04880  0.23850  Biso   1.000  H
  C124     1.0000 0.21848  0.07425  0.26509  Biso   1.000  C
  H80      1.0000 0.23390  0.08070  0.23610  Biso   1.000  H
  C125     1.0000 0.24412  0.08312  0.30582  Biso   1.000  C
  C126     1.0000 0.22056  0.07312  0.34887  Biso   1.000  C
  H81      1.0000 0.23790  0.07910  0.37700  Biso   1.000  H
  C127     1.0000 0.17223  0.05468  0.35028  Biso   1.000  C
  H82      1.0000 0.15740  0.04740  0.37940  Biso   1.000  H
  C128     1.0000 0.43966  0.03202  0.43689  Biso   1.000  C
  C129     1.0000 0.40297  0.05005  0.40104  Biso   1.000  C
  C130     1.0000 0.40186  0.10046  0.38729  Biso   1.000  C
  H83      1.0000 0.42560  0.12260  0.40010  Biso   1.000  H
  C131     1.0000 0.36708  0.11901  0.35541  Biso   1.000  C
  H84      1.0000 0.36710  0.15310  0.34720  Biso   1.000  H
  C132     1.0000 0.33179  0.08588  0.33563  Biso   1.000  C
  C133     1.0000 0.33371  0.03490  0.34768  Biso   1.000  C
  H85      1.0000 0.31110  0.01220  0.33390  Biso   1.000  H
  C134     1.0000 0.36865  0.01783  0.37977  Biso   1.000  C
  H86      1.0000 0.36930  0.98360  0.38740  Biso   1.000  H
  C135     1.0000 0.30114  0.14881  0.27655  Biso   1.000  C
  C136     1.0000 0.26542  0.18533  0.27580  Biso   1.000  C
  H87      1.0000 0.23580  0.18120  0.29330  Biso   1.000  H
  C137     1.0000 0.03910  0.98570  0.16330  Biso   1.000  C
  H88      1.0000 0.06730  0.97460  0.18010  Biso   1.000  H
  N14      1.0000 0.08870  0.97490  0.04670  Biso   1.000  N
  C138     1.0000 0.09250  0.97340  0.09170  Biso   1.000  C
  H89      1.0000 0.12230  0.96590  0.10780  Biso   1.000  H
  C139     1.0000 0.04280  0.98520  0.11570  Biso   1.000  C
  O35      1.0000 0.01480  0.01450  0.04350  Biso   1.000  O
  C140     1.0000 0.13100  0.94070  0.02590  Biso   1.000  C
  H90      1.0000 0.16370  0.95260  0.03710  Biso   1.000  H
  H91      1.0000 0.12630  0.90630  0.03710  Biso   1.000  H
  N15      1.0000 0.70582  0.89636  0.30427  Biso   1.000  N
  O36      1.0000 0.92878  0.97873  0.35009  Biso   1.000  O
  O37      1.0000 0.92954  0.97746  0.27098  Biso   1.000  O
  O38      1.0000 0.56522  0.01304  0.45057  Biso   1.000  O
  O39      1.0000 0.52734  0.93729  0.45131  Biso   1.000  O
  C141     1.0000 0.90862  0.97137  0.31053  Biso   1.000  C
  C142     1.0000 0.85473  0.95322  0.30934  Biso   1.000  C
  C143     1.0000 0.83104  0.94452  0.26661  Biso   1.000  C
  H92      1.0000 0.84820  0.95120  0.23850  Biso   1.000  H
  C144     1.0000 0.78152  0.92575  0.26509  Biso   1.000  C
  H93      1.0000 0.76610  0.91930  0.23610  Biso   1.000  H
  C145     1.0000 0.75588  0.91688  0.30582  Biso   1.000  C
  C146     1.0000 0.77944  0.92688  0.34887  Biso   1.000  C
  H94      1.0000 0.76210  0.92090  0.37700  Biso   1.000  H
  C147     1.0000 0.82777  0.94532  0.35028  Biso   1.000  C
  H95      1.0000 0.84260  0.95260  0.37940  Biso   1.000  H
  C148     1.0000 0.56034  0.96798  0.43689  Biso   1.000  C
  C149     1.0000 0.59703  0.94995  0.40104  Biso   1.000  C
  C150     1.0000 0.59814  0.89954  0.38729  Biso   1.000  C
  H96      1.0000 0.57440  0.87740  0.40010  Biso   1.000  H
  C151     1.0000 0.63292  0.88099  0.35541  Biso   1.000  C
  H97      1.0000 0.63290  0.84690  0.34720  Biso   1.000  H
  C152     1.0000 0.66821  0.91412  0.33563  Biso   1.000  C
  C153     1.0000 0.66629  0.96510  0.34768  Biso   1.000  C
  H98      1.0000 0.68890  0.98780  0.33390  Biso   1.000  H
  C154     1.0000 0.63135  0.98217  0.37977  Biso   1.000  C
  H99      1.0000 0.63070  0.01640  0.38740  Biso   1.000  H
  C155     1.0000 0.69886  0.85119  0.27655  Biso   1.000  C
  C156     1.0000 0.73458  0.81467  0.27580  Biso   1.000  C
  H100     1.0000 0.76420  0.81880  0.29330  Biso   1.000  H
  C157     1.0000 0.96090  0.01430  0.16330  Biso   1.000  C
  H101     1.0000 0.93270  0.02540  0.18010  Biso   1.000  H
  N16      1.0000 0.91130  0.02510  0.04670  Biso   1.000  N
  C158     1.0000 0.90750  0.02660  0.09170  Biso   1.000  C
  H102     1.0000 0.87770  0.03410  0.10780  Biso   1.000  H
  C159     1.0000 0.95720  0.01480  0.11570  Biso   1.000  C
  O40      1.0000 0.98520  0.98550  0.04350  Biso   1.000  O
  C160     1.0000 0.86900  0.05930  0.02590  Biso   1.000  C
  H103     1.0000 0.83630  0.04740  0.03710  Biso   1.000  H
  H104     1.0000 0.87370  0.09370  0.03710  Biso   1.000  H
  N17      1.0000 0.39636  0.20582  0.80427  Biso   1.000  N
  O41      1.0000 0.47873  0.42878  0.85009  Biso   1.000  O
  O42      1.0000 0.47746  0.42954  0.77098  Biso   1.000  O
  O43      1.0000 0.51304  0.06522  0.95057  Biso   1.000  O
  O44      1.0000 0.43729  0.02734  0.95131  Biso   1.000  O
  C161     1.0000 0.47137  0.40862  0.81053  Biso   1.000  C
  C162     1.0000 0.45322  0.35473  0.80934  Biso   1.000  C
  C163     1.0000 0.44452  0.33104  0.76661  Biso   1.000  C
  H105     1.0000 0.45120  0.34820  0.73850  Biso   1.000  H
  C164     1.0000 0.42575  0.28152  0.76509  Biso   1.000  C
  H106     1.0000 0.41930  0.26610  0.73610  Biso   1.000  H
  C165     1.0000 0.41688  0.25588  0.80582  Biso   1.000  C
  C166     1.0000 0.42688  0.27944  0.84887  Biso   1.000  C
  H107     1.0000 0.42090  0.26210  0.87700  Biso   1.000  H
  C167     1.0000 0.44532  0.32777  0.85028  Biso   1.000  C
  H108     1.0000 0.45260  0.34260  0.87940  Biso   1.000  H
  C168     1.0000 0.46798  0.06034  0.93689  Biso   1.000  C
  C169     1.0000 0.44995  0.09703  0.90104  Biso   1.000  C
  C170     1.0000 0.39954  0.09814  0.88729  Biso   1.000  C
  H109     1.0000 0.37740  0.07440  0.90010  Biso   1.000  H
  C171     1.0000 0.38099  0.13292  0.85541  Biso   1.000  C
  H110     1.0000 0.34690  0.13290  0.84720  Biso   1.000  H
  C172     1.0000 0.41412  0.16821  0.83563  Biso   1.000  C
  C173     1.0000 0.46510  0.16629  0.84768  Biso   1.000  C
  H111     1.0000 0.48780  0.18890  0.83390  Biso   1.000  H
  C174     1.0000 0.48217  0.13135  0.87977  Biso   1.000  C
  H112     1.0000 0.51640  0.13070  0.88740  Biso   1.000  H
  C175     1.0000 0.35119  0.19886  0.77655  Biso   1.000  C
  C176     1.0000 0.31467  0.23458  0.77580  Biso   1.000  C
  H113     1.0000 0.31880  0.26420  0.79330  Biso   1.000  H
  C177     1.0000 0.51430  0.46090  0.66330  Biso   1.000  C
  H114     1.0000 0.52540  0.43270  0.68010  Biso   1.000  H
  N18      1.0000 0.52510  0.41130  0.54670  Biso   1.000  N
  C178     1.0000 0.52660  0.40750  0.59170  Biso   1.000  C
  H115     1.0000 0.53410  0.37770  0.60780  Biso   1.000  H
  C179     1.0000 0.51480  0.45720  0.61570  Biso   1.000  C
  O45      1.0000 0.48550  0.48520  0.54350  Biso   1.000  O
  C180     1.0000 0.55930  0.36900  0.52590  Biso   1.000  C
  H116     1.0000 0.54740  0.33630  0.53710  Biso   1.000  H
  H117     1.0000 0.59370  0.37370  0.53710  Biso   1.000  H
  N19      1.0000 0.60364  0.79418  0.80427  Biso   1.000  N
  O46      1.0000 0.52127  0.57122  0.85009  Biso   1.000  O
  O47      1.0000 0.52254  0.57046  0.77098  Biso   1.000  O
  O48      1.0000 0.48696  0.93478  0.95057  Biso   1.000  O
  O49      1.0000 0.56271  0.97266  0.95131  Biso   1.000  O
  C181     1.0000 0.52863  0.59138  0.81053  Biso   1.000  C
  C182     1.0000 0.54678  0.64527  0.80934  Biso   1.000  C
  C183     1.0000 0.55548  0.66896  0.76661  Biso   1.000  C
  H118     1.0000 0.54880  0.65180  0.73850  Biso   1.000  H
  C184     1.0000 0.57425  0.71848  0.76509  Biso   1.000  C
  H119     1.0000 0.58070  0.73390  0.73610  Biso   1.000  H
  C185     1.0000 0.58312  0.74412  0.80582  Biso   1.000  C
  C186     1.0000 0.57312  0.72056  0.84887  Biso   1.000  C
  H120     1.0000 0.57910  0.73790  0.87700  Biso   1.000  H
  C187     1.0000 0.55468  0.67223  0.85028  Biso   1.000  C
  H121     1.0000 0.54740  0.65740  0.87940  Biso   1.000  H
  C188     1.0000 0.53202  0.93966  0.93689  Biso   1.000  C
  C189     1.0000 0.55005  0.90297  0.90104  Biso   1.000  C
  C190     1.0000 0.60046  0.90186  0.88729  Biso   1.000  C
  H122     1.0000 0.62260  0.92560  0.90010  Biso   1.000  H
  C191     1.0000 0.61901  0.86708  0.85541  Biso   1.000  C
  H123     1.0000 0.65310  0.86710  0.84720  Biso   1.000  H
  C192     1.0000 0.58588  0.83179  0.83563  Biso   1.000  C
  C193     1.0000 0.53490  0.83371  0.84768  Biso   1.000  C
  H124     1.0000 0.51220  0.81110  0.83390  Biso   1.000  H
  C194     1.0000 0.51783  0.86865  0.87977  Biso   1.000  C
  H125     1.0000 0.48360  0.86930  0.88740  Biso   1.000  H
  C195     1.0000 0.64881  0.80114  0.77655  Biso   1.000  C
  C196     1.0000 0.68533  0.76542  0.77580  Biso   1.000  C
  H126     1.0000 0.68120  0.73580  0.79330  Biso   1.000  H
  C197     1.0000 0.48570  0.53910  0.66330  Biso   1.000  C
  H127     1.0000 0.47460  0.56730  0.68010  Biso   1.000  H
  N20      1.0000 0.47490  0.58870  0.54670  Biso   1.000  N
  C198     1.0000 0.47340  0.59250  0.59170  Biso   1.000  C
  H128     1.0000 0.46590  0.62230  0.60780  Biso   1.000  H
  C199     1.0000 0.48520  0.54280  0.61570  Biso   1.000  C
  O50      1.0000 0.51450  0.51480  0.54350  Biso   1.000  O
  C200     1.0000 0.44070  0.63100  0.52590  Biso   1.000  C
  H129     1.0000 0.45260  0.66370  0.53710  Biso   1.000  H
  H130     1.0000 0.40630  0.62630  0.53710  Biso   1.000  H
  N21      1.0000 0.79418  0.39636  0.80427  Biso   1.000  N
  O51      1.0000 0.57122  0.47873  0.85009  Biso   1.000  O
  O52      1.0000 0.57046  0.47746  0.77098  Biso   1.000  O
  O53      1.0000 0.93478  0.51304  0.95057  Biso   1.000  O
  O54      1.0000 0.97266  0.43729  0.95131  Biso   1.000  O
  C201     1.0000 0.59138  0.47137  0.81053  Biso   1.000  C
  C202     1.0000 0.64527  0.45322  0.80934  Biso   1.000  C
  C203     1.0000 0.66896  0.44452  0.76661  Biso   1.000  C
  H131     1.0000 0.65180  0.45120  0.73850  Biso   1.000  H
  C204     1.0000 0.71848  0.42575  0.76509  Biso   1.000  C
  H132     1.0000 0.73390  0.41930  0.73610  Biso   1.000  H
  C205     1.0000 0.74412  0.41688  0.80582  Biso   1.000  C
  C206     1.0000 0.72056  0.42688  0.84887  Biso   1.000  C
  H133     1.0000 0.73790  0.42090  0.87700  Biso   1.000  H
  C207     1.0000 0.67223  0.44532  0.85028  Biso   1.000  C
  H134     1.0000 0.65740  0.45260  0.87940  Biso   1.000  H
  C208     1.0000 0.93966  0.46798  0.93689  Biso   1.000  C
  C209     1.0000 0.90297  0.44995  0.90104  Biso   1.000  C
  C210     1.0000 0.90186  0.39954  0.88729  Biso   1.000  C
  H135     1.0000 0.92560  0.37740  0.90010  Biso   1.000  H
  C211     1.0000 0.86708  0.38099  0.85541  Biso   1.000  C
  H136     1.0000 0.86710  0.34690  0.84720  Biso   1.000  H
  C212     1.0000 0.83179  0.41412  0.83563  Biso   1.000  C
  C213     1.0000 0.83371  0.46510  0.84768  Biso   1.000  C
  H137     1.0000 0.81110  0.48780  0.83390  Biso   1.000  H
  C214     1.0000 0.86865  0.48217  0.87977  Biso   1.000  C
  H138     1.0000 0.86930  0.51640  0.88740  Biso   1.000  H
  C215     1.0000 0.80114  0.35119  0.77655  Biso   1.000  C
  C216     1.0000 0.76542  0.31467  0.77580  Biso   1.000  C
  H139     1.0000 0.73580  0.31880  0.79330  Biso   1.000  H
  C217     1.0000 0.53910  0.51430  0.66330  Biso   1.000  C
  H140     1.0000 0.56730  0.52540  0.68010  Biso   1.000  H
  N22      1.0000 0.58870  0.52510  0.54670  Biso   1.000  N
  C218     1.0000 0.59250  0.52660  0.59170  Biso   1.000  C
  H141     1.0000 0.62230  0.53410  0.60780  Biso   1.000  H
  C219     1.0000 0.54280  0.51480  0.61570  Biso   1.000  C
  O55      1.0000 0.51480  0.48550  0.54350  Biso   1.000  O
  C220     1.0000 0.63100  0.55930  0.52590  Biso   1.000  C
  H142     1.0000 0.66370  0.54740  0.53710  Biso   1.000  H
  H143     1.0000 0.62630  0.59370  0.53710  Biso   1.000  H
  N23      1.0000 0.20582  0.60364  0.80427  Biso   1.000  N
  O56      1.0000 0.42878  0.52127  0.85009  Biso   1.000  O
  O57      1.0000 0.42954  0.52254  0.77098  Biso   1.000  O
  O58      1.0000 0.06522  0.48696  0.95057  Biso   1.000  O
  O59      1.0000 0.02734  0.56271  0.95131  Biso   1.000  O
  C221     1.0000 0.40862  0.52863  0.81053  Biso   1.000  C
  C222     1.0000 0.35473  0.54678  0.80934  Biso   1.000  C
  C223     1.0000 0.33104  0.55548  0.76661  Biso   1.000  C
  H144     1.0000 0.34820  0.54880  0.73850  Biso   1.000  H
  C224     1.0000 0.28152  0.57425  0.76509  Biso   1.000  C
  H145     1.0000 0.26610  0.58070  0.73610  Biso   1.000  H
  C225     1.0000 0.25588  0.58312  0.80582  Biso   1.000  C
  C226     1.0000 0.27944  0.57312  0.84887  Biso   1.000  C
  H146     1.0000 0.26210  0.57910  0.87700  Biso   1.000  H
  C227     1.0000 0.32777  0.55468  0.85028  Biso   1.000  C
  H147     1.0000 0.34260  0.54740  0.87940  Biso   1.000  H
  C228     1.0000 0.06034  0.53202  0.93689  Biso   1.000  C
  C229     1.0000 0.09703  0.55005  0.90104  Biso   1.000  C
  C230     1.0000 0.09814  0.60046  0.88729  Biso   1.000  C
  H148     1.0000 0.07440  0.62260  0.90010  Biso   1.000  H
  C231     1.0000 0.13292  0.61901  0.85541  Biso   1.000  C
  H149     1.0000 0.13290  0.65310  0.84720  Biso   1.000  H
  C232     1.0000 0.16821  0.58588  0.83563  Biso   1.000  C
  C233     1.0000 0.16629  0.53490  0.84768  Biso   1.000  C
  H150     1.0000 0.18890  0.51220  0.83390  Biso   1.000  H
  C234     1.0000 0.13135  0.51783  0.87977  Biso   1.000  C
  H151     1.0000 0.13070  0.48360  0.88740  Biso   1.000  H
  C235     1.0000 0.19886  0.64881  0.77655  Biso   1.000  C
  C236     1.0000 0.23458  0.68533  0.77580  Biso   1.000  C
  H152     1.0000 0.26420  0.68120  0.79330  Biso   1.000  H
  C237     1.0000 0.46090  0.48570  0.66330  Biso   1.000  C
  H153     1.0000 0.43270  0.47460  0.68010  Biso   1.000  H
  N24      1.0000 0.41130  0.47490  0.54670  Biso   1.000  N
  C238     1.0000 0.40750  0.47340  0.59170  Biso   1.000  C
  H154     1.0000 0.37770  0.46590  0.60780  Biso   1.000  H
  C239     1.0000 0.45720  0.48520  0.61570  Biso   1.000  C
  O60      1.0000 0.48520  0.51450  0.54350  Biso   1.000  O
  C240     1.0000 0.36900  0.44070  0.52590  Biso   1.000  C
  H155     1.0000 0.33630  0.45260  0.53710  Biso   1.000  H
  H156     1.0000 0.37370  0.40630  0.53710  Biso   1.000  H
  N25      1.0000 0.10364  0.70582  0.69573  Biso   1.000  N
  O61      1.0000 0.02127  0.92878  0.64991  Biso   1.000  O
  O62      1.0000 0.02254  0.92954  0.72902  Biso   1.000  O
  O63      1.0000 0.98696  0.56522  0.54943  Biso   1.000  O
  O64      1.0000 0.06271  0.52734  0.54869  Biso   1.000  O
  C241     1.0000 0.02863  0.90862  0.68947  Biso   1.000  C
  C242     1.0000 0.04678  0.85473  0.69066  Biso   1.000  C
  C243     1.0000 0.05548  0.83104  0.73339  Biso   1.000  C
  H157     1.0000 0.04880  0.84820  0.76150  Biso   1.000  H
  C244     1.0000 0.07425  0.78152  0.73491  Biso   1.000  C
  H158     1.0000 0.08070  0.76610  0.76390  Biso   1.000  H
  C245     1.0000 0.08312  0.75588  0.69418  Biso   1.000  C
  C246     1.0000 0.07312  0.77944  0.65113  Biso   1.000  C
  H159     1.0000 0.07910  0.76210  0.62300  Biso   1.000  H
  C247     1.0000 0.05468  0.82777  0.64972  Biso   1.000  C
  H160     1.0000 0.04740  0.84260  0.62060  Biso   1.000  H
  C248     1.0000 0.03202  0.56034  0.56311  Biso   1.000  C
  C249     1.0000 0.05005  0.59703  0.59896  Biso   1.000  C
  C250     1.0000 0.10046  0.59814  0.61271  Biso   1.000  C
  H161     1.0000 0.12260  0.57440  0.59990  Biso   1.000  H
  C251     1.0000 0.11901  0.63292  0.64459  Biso   1.000  C
  H162     1.0000 0.15310  0.63290  0.65280  Biso   1.000  H
  C252     1.0000 0.08588  0.66821  0.66437  Biso   1.000  C
  C253     1.0000 0.03490  0.66629  0.65232  Biso   1.000  C
  H163     1.0000 0.01220  0.68890  0.66610  Biso   1.000  H
  C254     1.0000 0.01783  0.63135  0.62023  Biso   1.000  C
  H164     1.0000 0.98360  0.63070  0.61260  Biso   1.000  H
  C255     1.0000 0.14881  0.69886  0.72345  Biso   1.000  C
  C256     1.0000 0.18533  0.73458  0.72420  Biso   1.000  C
  H165     1.0000 0.18120  0.76420  0.70670  Biso   1.000  H
  C257     1.0000 0.98570  0.96090  0.83670  Biso   1.000  C
  H166     1.0000 0.97460  0.93270  0.81990  Biso   1.000  H
  N26      1.0000 0.97490  0.91130  0.95330  Biso   1.000  N
  C258     1.0000 0.97340  0.90750  0.90830  Biso   1.000  C
  H167     1.0000 0.96590  0.87770  0.89220  Biso   1.000  H
  C259     1.0000 0.98520  0.95720  0.88430  Biso   1.000  C
  O65      1.0000 0.01450  0.98520  0.95650  Biso   1.000  O
  C260     1.0000 0.94070  0.86900  0.97410  Biso   1.000  C
  H168     1.0000 0.95260  0.83630  0.96290  Biso   1.000  H
  H169     1.0000 0.90630  0.87370  0.96290  Biso   1.000  H
  N27      1.0000 0.89636  0.29418  0.69573  Biso   1.000  N
  O66      1.0000 0.97873  0.07122  0.64991  Biso   1.000  O
  O67      1.0000 0.97746  0.07046  0.72902  Biso   1.000  O
  O68      1.0000 0.01304  0.43478  0.54943  Biso   1.000  O
  O69      1.0000 0.93729  0.47266  0.54869  Biso   1.000  O
  C261     1.0000 0.97137  0.09138  0.68947  Biso   1.000  C
  C262     1.0000 0.95322  0.14527  0.69066  Biso   1.000  C
  C263     1.0000 0.94452  0.16896  0.73339  Biso   1.000  C
  H170     1.0000 0.95120  0.15180  0.76150  Biso   1.000  H
  C264     1.0000 0.92575  0.21848  0.73491  Biso   1.000  C
  H171     1.0000 0.91930  0.23390  0.76390  Biso   1.000  H
  C265     1.0000 0.91688  0.24412  0.69418  Biso   1.000  C
  C266     1.0000 0.92688  0.22056  0.65113  Biso   1.000  C
  H172     1.0000 0.92090  0.23790  0.62300  Biso   1.000  H
  C267     1.0000 0.94532  0.17223  0.64972  Biso   1.000  C
  H173     1.0000 0.95260  0.15740  0.62060  Biso   1.000  H
  C268     1.0000 0.96798  0.43966  0.56311  Biso   1.000  C
  C269     1.0000 0.94995  0.40297  0.59896  Biso   1.000  C
  C270     1.0000 0.89954  0.40186  0.61271  Biso   1.000  C
  H174     1.0000 0.87740  0.42560  0.59990  Biso   1.000  H
  C271     1.0000 0.88099  0.36708  0.64459  Biso   1.000  C
  H175     1.0000 0.84690  0.36710  0.65280  Biso   1.000  H
  C272     1.0000 0.91412  0.33179  0.66437  Biso   1.000  C
  C273     1.0000 0.96510  0.33371  0.65232  Biso   1.000  C
  H176     1.0000 0.98780  0.31110  0.66610  Biso   1.000  H
  C274     1.0000 0.98217  0.36865  0.62023  Biso   1.000  C
  H177     1.0000 0.01640  0.36930  0.61260  Biso   1.000  H
  C275     1.0000 0.85119  0.30114  0.72345  Biso   1.000  C
  C276     1.0000 0.81467  0.26542  0.72420  Biso   1.000  C
  H178     1.0000 0.81880  0.23580  0.70670  Biso   1.000  H
  C277     1.0000 0.01430  0.03910  0.83670  Biso   1.000  C
  H179     1.0000 0.02540  0.06730  0.81990  Biso   1.000  H
  N28      1.0000 0.02510  0.08870  0.95330  Biso   1.000  N
  C278     1.0000 0.02660  0.09250  0.90830  Biso   1.000  C
  H180     1.0000 0.03410  0.12230  0.89220  Biso   1.000  H
  C279     1.0000 0.01480  0.04280  0.88430  Biso   1.000  C
  O70      1.0000 0.98550  0.01480  0.95650  Biso   1.000  O
  C280     1.0000 0.05930  0.13100  0.97410  Biso   1.000  C
  H181     1.0000 0.04740  0.16370  0.96290  Biso   1.000  H
  H182     1.0000 0.09370  0.12630  0.96290  Biso   1.000  H
  N29      1.0000 0.70582  0.89636  0.69573  Biso   1.000  N
  O71      1.0000 0.92878  0.97873  0.64991  Biso   1.000  O
  O72      1.0000 0.92954  0.97746  0.72902  Biso   1.000  O
  O73      1.0000 0.56522  0.01304  0.54943  Biso   1.000  O
  O74      1.0000 0.52734  0.93729  0.54869  Biso   1.000  O
  C281     1.0000 0.90862  0.97137  0.68947  Biso   1.000  C
  C282     1.0000 0.85473  0.95322  0.69066  Biso   1.000  C
  C283     1.0000 0.83104  0.94452  0.73339  Biso   1.000  C
  H183     1.0000 0.84820  0.95120  0.76150  Biso   1.000  H
  C284     1.0000 0.78152  0.92575  0.73491  Biso   1.000  C
  H184     1.0000 0.76610  0.91930  0.76390  Biso   1.000  H
  C285     1.0000 0.75588  0.91688  0.69418  Biso   1.000  C
  C286     1.0000 0.77944  0.92688  0.65113  Biso   1.000  C
  H185     1.0000 0.76210  0.92090  0.62300  Biso   1.000  H
  C287     1.0000 0.82777  0.94532  0.64972  Biso   1.000  C
  H186     1.0000 0.84260  0.95260  0.62060  Biso   1.000  H
  C288     1.0000 0.56034  0.96798  0.56311  Biso   1.000  C
  C289     1.0000 0.59703  0.94995  0.59896  Biso   1.000  C
  C290     1.0000 0.59814  0.89954  0.61271  Biso   1.000  C
  H187     1.0000 0.57440  0.87740  0.59990  Biso   1.000  H
  C291     1.0000 0.63292  0.88099  0.64459  Biso   1.000  C
  H188     1.0000 0.63290  0.84690  0.65280  Biso   1.000  H
  C292     1.0000 0.66821  0.91412  0.66437  Biso   1.000  C
  C293     1.0000 0.66629  0.96510  0.65232  Biso   1.000  C
  H189     1.0000 0.68890  0.98780  0.66610  Biso   1.000  H
  C294     1.0000 0.63135  0.98217  0.62023  Biso   1.000  C
  H190     1.0000 0.63070  0.01640  0.61260  Biso   1.000  H
  C295     1.0000 0.69886  0.85119  0.72345  Biso   1.000  C
  C296     1.0000 0.73458  0.81467  0.72420  Biso   1.000  C
  H191     1.0000 0.76420  0.81880  0.70670  Biso   1.000  H
  C297     1.0000 0.96090  0.01430  0.83670  Biso   1.000  C
  H192     1.0000 0.93270  0.02540  0.81990  Biso   1.000  H
  N30      1.0000 0.91130  0.02510  0.95330  Biso   1.000  N
  C298     1.0000 0.90750  0.02660  0.90830  Biso   1.000  C
  H193     1.0000 0.87770  0.03410  0.89220  Biso   1.000  H
  C299     1.0000 0.95720  0.01480  0.88430  Biso   1.000  C
  O75      1.0000 0.98520  0.98550  0.95650  Biso   1.000  O
  C300     1.0000 0.86900  0.05930  0.97410  Biso   1.000  C
  H194     1.0000 0.83630  0.04740  0.96290  Biso   1.000  H
  H195     1.0000 0.87370  0.09370  0.96290  Biso   1.000  H
  N31      1.0000 0.29418  0.10364  0.69573  Biso   1.000  N
  O76      1.0000 0.07122  0.02127  0.64991  Biso   1.000  O
  O77      1.0000 0.07046  0.02254  0.72902  Biso   1.000  O
  O78      1.0000 0.43478  0.98696  0.54943  Biso   1.000  O
  O79      1.0000 0.47266  0.06271  0.54869  Biso   1.000  O
  C301     1.0000 0.09138  0.02863  0.68947  Biso   1.000  C
  C302     1.0000 0.14527  0.04678  0.69066  Biso   1.000  C
  C303     1.0000 0.16896  0.05548  0.73339  Biso   1.000  C
  H196     1.0000 0.15180  0.04880  0.76150  Biso   1.000  H
  C304     1.0000 0.21848  0.07425  0.73491  Biso   1.000  C
  H197     1.0000 0.23390  0.08070  0.76390  Biso   1.000  H
  C305     1.0000 0.24412  0.08312  0.69418  Biso   1.000  C
  C306     1.0000 0.22056  0.07312  0.65113  Biso   1.000  C
  H198     1.0000 0.23790  0.07910  0.62300  Biso   1.000  H
  C307     1.0000 0.17223  0.05468  0.64972  Biso   1.000  C
  H199     1.0000 0.15740  0.04740  0.62060  Biso   1.000  H
  C308     1.0000 0.43966  0.03202  0.56311  Biso   1.000  C
  C309     1.0000 0.40297  0.05005  0.59896  Biso   1.000  C
  C310     1.0000 0.40186  0.10046  0.61271  Biso   1.000  C
  H200     1.0000 0.42560  0.12260  0.59990  Biso   1.000  H
  C311     1.0000 0.36708  0.11901  0.64459  Biso   1.000  C
  H201     1.0000 0.36710  0.15310  0.65280  Biso   1.000  H
  C312     1.0000 0.33179  0.08588  0.66437  Biso   1.000  C
  C313     1.0000 0.33371  0.03490  0.65232  Biso   1.000  C
  H202     1.0000 0.31110  0.01220  0.66610  Biso   1.000  H
  C314     1.0000 0.36865  0.01783  0.62023  Biso   1.000  C
  H203     1.0000 0.36930  0.98360  0.61260  Biso   1.000  H
  C315     1.0000 0.30114  0.14881  0.72345  Biso   1.000  C
  C316     1.0000 0.26542  0.18533  0.72420  Biso   1.000  C
  H204     1.0000 0.23580  0.18120  0.70670  Biso   1.000  H
  C317     1.0000 0.03910  0.98570  0.83670  Biso   1.000  C
  H205     1.0000 0.06730  0.97460  0.81990  Biso   1.000  H
  N32      1.0000 0.08870  0.97490  0.95330  Biso   1.000  N
  C318     1.0000 0.09250  0.97340  0.90830  Biso   1.000  C
  H206     1.0000 0.12230  0.96590  0.89220  Biso   1.000  H
  C319     1.0000 0.04280  0.98520  0.88430  Biso   1.000  C
  O80      1.0000 0.01480  0.01450  0.95650  Biso   1.000  O
  C320     1.0000 0.13100  0.94070  0.97410  Biso   1.000  C
  H207     1.0000 0.16370  0.95260  0.96290  Biso   1.000  H
  H208     1.0000 0.12630  0.90630  0.96290  Biso   1.000  H
  Cu1      1.0000 0.50000  0.50000  0.14300  Biso   1.000  Cu
  Cu2      1.0000 0.50000  0.50000  0.23664  Biso   1.000  Cu
  N33      1.0000 0.50000  0.50000  0.31181  Biso   1.000  N
  C321     1.0000 0.50000  0.50000  0.40950  Biso   1.000  C
  Cu3      1.0000 0.00000  0.00000  0.35700  Biso   1.000  Cu
  Cu4      1.0000 0.00000  0.00000  0.26336  Biso   1.000  Cu
  N34      1.0000 0.00000  0.00000  0.18819  Biso   1.000  N
  C322     1.0000 0.00000  0.00000  0.09050  Biso   1.000  C
  Cu5      1.0000 0.50000  0.50000  0.85700  Biso   1.000  Cu
  Cu6      1.0000 0.50000  0.50000  0.76336  Biso   1.000  Cu
  N35      1.0000 0.50000  0.50000  0.68819  Biso   1.000  N
  C323     1.0000 0.50000  0.50000  0.59050  Biso   1.000  C
  Cu7      1.0000 0.00000  0.00000  0.64300  Biso   1.000  Cu
  Cu8      1.0000 0.00000  0.00000  0.73664  Biso   1.000  Cu
  N36      1.0000 0.00000  0.00000  0.81181  Biso   1.000  N
  C324     1.0000 0.00000  0.00000  0.90950  Biso   1.000  C
  Cu9      1.0000 0.45556  0.97742  0.00000  Biso   1.000  Cu
  Cu10     1.0000 0.54444  0.02258  0.00000  Biso   1.000  Cu
  Cu11     1.0000 0.02258  0.45556  0.00000  Biso   1.000  Cu
  Cu12     1.0000 0.97742  0.54444  0.00000  Biso   1.000  Cu
  Cu13     1.0000 0.04444  0.47742  0.50000  Biso   1.000  Cu
  Cu14     1.0000 0.95556  0.52258  0.50000  Biso   1.000  Cu
  Cu15     1.0000 0.47742  0.95556  0.50000  Biso   1.000  Cu
  Cu16     1.0000 0.52258  0.04444  0.50000  Biso   1.000  Cu
  C325     1.0000 0.72789  0.77211  0.25000  Biso   1.000  C
  H209     1.0000 0.75280  0.74720  0.25000  Biso   1.000  H
  C326     1.0000 0.65540  0.84460  0.25000  Biso   1.000  C
  H210     1.0000 0.63050  0.86950  0.25000  Biso   1.000  H
  C327     1.0000 0.27211  0.22789  0.25000  Biso   1.000  C
  H211     1.0000 0.24720  0.25280  0.25000  Biso   1.000  H
  C328     1.0000 0.34460  0.15540  0.25000  Biso   1.000  C
  H212     1.0000 0.36950  0.13050  0.25000  Biso   1.000  H
  C329     1.0000 0.22789  0.72789  0.25000  Biso   1.000  C
  H213     1.0000 0.25280  0.75280  0.25000  Biso   1.000  H
  C330     1.0000 0.15540  0.65540  0.25000  Biso   1.000  C
  H214     1.0000 0.13050  0.63050  0.25000  Biso   1.000  H
  C331     1.0000 0.77211  0.27211  0.25000  Biso   1.000  C
  H215     1.0000 0.74720  0.24720  0.25000  Biso   1.000  H
  C332     1.0000 0.84460  0.34460  0.25000  Biso   1.000  C
  H216     1.0000 0.86950  0.36950  0.25000  Biso   1.000  H
  C333     1.0000 0.27211  0.22789  0.75000  Biso   1.000  C
  H217     1.0000 0.24720  0.25280  0.75000  Biso   1.000  H
  C334     1.0000 0.34460  0.15540  0.75000  Biso   1.000  C
  H218     1.0000 0.36950  0.13050  0.75000  Biso   1.000  H
  C335     1.0000 0.72789  0.77211  0.75000  Biso   1.000  C
  H219     1.0000 0.75280  0.74720  0.75000  Biso   1.000  H
  C336     1.0000 0.65540  0.84460  0.75000  Biso   1.000  C
  H220     1.0000 0.63050  0.86950  0.75000  Biso   1.000  H
  C337     1.0000 0.77211  0.27211  0.75000  Biso   1.000  C
  H221     1.0000 0.74720  0.24720  0.75000  Biso   1.000  H
  C338     1.0000 0.84460  0.34460  0.75000  Biso   1.000  C
  H222     1.0000 0.86950  0.36950  0.75000  Biso   1.000  H
  C339     1.0000 0.22789  0.72789  0.75000  Biso   1.000  C
  H223     1.0000 0.25280  0.75280  0.75000  Biso   1.000  H
  C340     1.0000 0.15540  0.65540  0.75000  Biso   1.000  C
  H224     1.0000 0.13050  0.63050  0.75000  Biso   1.000  H
  Ni1      1.0000 0.48200  0.53630  0.50000  Biso   1.000  Ni
  Ni2      1.0000 0.51800  0.46370  0.50000  Biso   1.000  Ni
  Ni3      1.0000 0.46370  0.48200  0.50000  Biso   1.000  Ni
  Ni4      1.0000 0.53630  0.51800  0.50000  Biso   1.000  Ni
  Ni5      1.0000 0.01800  0.03630  0.00000  Biso   1.000  Ni
  Ni6      1.0000 0.98200  0.96370  0.00000  Biso   1.000  Ni
  Ni7      1.0000 0.03630  0.98200  0.00000  Biso   1.000  Ni
  Ni8      1.0000 0.96370  0.01800  0.00000  Biso   1.000  Ni
