data_image0
_cell_length_a       26.49
_cell_length_b       26.49
_cell_length_c       27.35
_cell_angle_alpha    90
_cell_angle_beta     90
_cell_angle_gamma    90

_symmetry_space_group_name_H-M    "P 1"
_symmetry_int_tables_number       1

loop_
  _symmetry_equiv_pos_as_xyz
  'x, y, z'

loop_
  _atom_site_label
  _atom_site_occupancy
  _atom_site_fract_x
  _atom_site_fract_y
  _atom_site_fract_z
  _atom_site_thermal_displace_type
  _atom_site_B_iso_or_equiv
  _atom_site_type_symbol
  N1       1.0000 0.61200  0.78927  0.19139  Biso   1.000  N
  O1       1.0000 0.52464  0.57054  0.13711  Biso   1.000  O
  O2       1.0000 0.52686  0.56814  0.21822  Biso   1.000  O
  O3       1.0000 0.48897  0.93501  0.05058  Biso   1.000  O
  O4       1.0000 0.56370  0.97477  0.05014  Biso   1.000  O
  C1       1.0000 0.53315  0.58951  0.17791  Biso   1.000  C
  C2       1.0000 0.55325  0.64240  0.18050  Biso   1.000  C
  C3       1.0000 0.56378  0.66356  0.22536  Biso   1.000  C
  H1       1.0000 0.55840  0.64490  0.25370  Biso   1.000  H
  C4       1.0000 0.58236  0.71233  0.22884  Biso   1.000  C
  H2       1.0000 0.58880  0.72640  0.25940  Biso   1.000  H
  C5       1.0000 0.59123  0.73980  0.18733  Biso   1.000  C
  C6       1.0000 0.58106  0.71878  0.14217  Biso   1.000  C
  H3       1.0000 0.58700  0.73730  0.11390  Biso   1.000  H
  C7       1.0000 0.56212  0.67051  0.13881  Biso   1.000  C
  H4       1.0000 0.55520  0.65670  0.10830  Biso   1.000  H
  C8       1.0000 0.53401  0.94050  0.06409  Biso   1.000  C
  C9       1.0000 0.55476  0.90233  0.09930  Biso   1.000  C
  C10      1.0000 0.60531  0.90201  0.11143  Biso   1.000  C
  H5       1.0000 0.62670  0.92650  0.09860  Biso   1.000  H
  C11      1.0000 0.62441  0.86560  0.14255  Biso   1.000  C
  H6       1.0000 0.65850  0.86590  0.15060  Biso   1.000  H
  C12      1.0000 0.59294  0.82843  0.16192  Biso   1.000  C
  C13      1.0000 0.54189  0.83035  0.15071  Biso   1.000  C
  H7       1.0000 0.52010  0.80690  0.16460  Biso   1.000  H
  C14      1.0000 0.52301  0.86615  0.11964  Biso   1.000  C
  H8       1.0000 0.48880  0.86630  0.11210  Biso   1.000  H
  C15      1.0000 0.65613  0.79583  0.22112  Biso   1.000  C
  C16      1.0000 0.69326  0.75935  0.22092  Biso   1.000  C
  H9       1.0000 0.69000  0.73100  0.20110  Biso   1.000  H
  C17      1.0000 0.48090  0.53840  0.32930  Biso   1.000  C
  H10      1.0000 0.46710  0.56560  0.31250  Biso   1.000  H
  C18      1.0000 0.48080  0.53950  0.37930  Biso   1.000  C
  O5       1.0000 0.51550  0.48850  0.45230  Biso   1.000  O
  N2       1.0000 0.46300  0.58180  0.45280  Biso   1.000  N
  C19      1.0000 0.45540  0.58300  0.40480  Biso   1.000  C
  H11      1.0000 0.43670  0.60770  0.38890  Biso   1.000  H
  C20      1.0000 0.44750  0.62990  0.47350  Biso   1.000  C
  H12      1.0000 0.41530  0.64150  0.46200  Biso   1.000  H
  H13      1.0000 0.47280  0.65300  0.46200  Biso   1.000  H
  C21      1.0000 0.53530  0.46390  0.02830  Biso   1.000  C
  H14      1.0000 0.56900  0.47190  0.04000  Biso   1.000  H
  H15      1.0000 0.53090  0.43220  0.03980  Biso   1.000  H
  H16      1.0000 0.41130  0.87310  0.02850  Biso   1.000  H
  H17      1.0000 0.34650  0.83050  0.97150  Biso   1.000  H
  H18      1.0000 0.34180  0.98530  0.97140  Biso   1.000  H
  H19      1.0000 0.27300  0.94270  0.02850  Biso   1.000  H
  C22      1.0000 0.36740  0.92430  0.95290  Biso   1.000  C
  H20      1.0000 0.39420  0.91060  0.93270  Biso   1.000  H
  H21      1.0000 0.35690  0.95610  0.93850  Biso   1.000  H
  C23      1.0000 0.32290  0.88790  0.95220  Biso   1.000  C
  H22      1.0000 0.29800  0.90080  0.92940  Biso   1.000  H
  H23      1.0000 0.33470  0.85580  0.93940  Biso   1.000  H
  H24      1.0000 0.52660  0.43050  0.04000  Biso   1.000  H
  C24      1.0000 0.49900  0.55050  0.02810  Biso   1.000  C
  N3       1.0000 0.38800  0.21073  0.19139  Biso   1.000  N
  O6       1.0000 0.47536  0.42946  0.13711  Biso   1.000  O
  O7       1.0000 0.47314  0.43186  0.21822  Biso   1.000  O
  O8       1.0000 0.51103  0.06499  0.05058  Biso   1.000  O
  O9       1.0000 0.43630  0.02523  0.05014  Biso   1.000  O
  C25      1.0000 0.46685  0.41049  0.17791  Biso   1.000  C
  C26      1.0000 0.44675  0.35760  0.18050  Biso   1.000  C
  C27      1.0000 0.43622  0.33644  0.22536  Biso   1.000  C
  H25      1.0000 0.44160  0.35510  0.25370  Biso   1.000  H
  C28      1.0000 0.41764  0.28767  0.22884  Biso   1.000  C
  H26      1.0000 0.41120  0.27360  0.25940  Biso   1.000  H
  C29      1.0000 0.40877  0.26020  0.18733  Biso   1.000  C
  C30      1.0000 0.41894  0.28122  0.14217  Biso   1.000  C
  H27      1.0000 0.41300  0.26270  0.11390  Biso   1.000  H
  C31      1.0000 0.43788  0.32949  0.13881  Biso   1.000  C
  H28      1.0000 0.44480  0.34330  0.10830  Biso   1.000  H
  C32      1.0000 0.46599  0.05950  0.06409  Biso   1.000  C
  C33      1.0000 0.44524  0.09767  0.09930  Biso   1.000  C
  C34      1.0000 0.39469  0.09799  0.11143  Biso   1.000  C
  H29      1.0000 0.37330  0.07350  0.09860  Biso   1.000  H
  C35      1.0000 0.37559  0.13440  0.14255  Biso   1.000  C
  H30      1.0000 0.34150  0.13410  0.15060  Biso   1.000  H
  C36      1.0000 0.40706  0.17157  0.16192  Biso   1.000  C
  C37      1.0000 0.45811  0.16965  0.15071  Biso   1.000  C
  H31      1.0000 0.47990  0.19310  0.16460  Biso   1.000  H
  C38      1.0000 0.47699  0.13385  0.11964  Biso   1.000  C
  H32      1.0000 0.51120  0.13370  0.11210  Biso   1.000  H
  C39      1.0000 0.34387  0.20417  0.22112  Biso   1.000  C
  C40      1.0000 0.30674  0.24065  0.22092  Biso   1.000  C
  H33      1.0000 0.31000  0.26900  0.20110  Biso   1.000  H
  C41      1.0000 0.51910  0.46160  0.32930  Biso   1.000  C
  H34      1.0000 0.53290  0.43440  0.31250  Biso   1.000  H
  C42      1.0000 0.51920  0.46050  0.37930  Biso   1.000  C
  O10      1.0000 0.48450  0.51150  0.45230  Biso   1.000  O
  N4       1.0000 0.53700  0.41820  0.45280  Biso   1.000  N
  C43      1.0000 0.54460  0.41700  0.40480  Biso   1.000  C
  H35      1.0000 0.56330  0.39230  0.38890  Biso   1.000  H
  C44      1.0000 0.55250  0.37010  0.47350  Biso   1.000  C
  H36      1.0000 0.58470  0.35850  0.46200  Biso   1.000  H
  H37      1.0000 0.52720  0.34700  0.46200  Biso   1.000  H
  C45      1.0000 0.46470  0.53610  0.02830  Biso   1.000  C
  H38      1.0000 0.43100  0.52810  0.04000  Biso   1.000  H
  H39      1.0000 0.46910  0.56780  0.03980  Biso   1.000  H
  H40      1.0000 0.58870  0.12690  0.02850  Biso   1.000  H
  H41      1.0000 0.65350  0.16950  0.97150  Biso   1.000  H
  H42      1.0000 0.65820  0.01470  0.97140  Biso   1.000  H
  H43      1.0000 0.72700  0.05730  0.02850  Biso   1.000  H
  C46      1.0000 0.63260  0.07570  0.95290  Biso   1.000  C
  H44      1.0000 0.60580  0.08940  0.93270  Biso   1.000  H
  H45      1.0000 0.64310  0.04390  0.93850  Biso   1.000  H
  C47      1.0000 0.67710  0.11210  0.95220  Biso   1.000  C
  H46      1.0000 0.70200  0.09920  0.92940  Biso   1.000  H
  H47      1.0000 0.66530  0.14420  0.93940  Biso   1.000  H
  H48      1.0000 0.47340  0.56950  0.04000  Biso   1.000  H
  C48      1.0000 0.50100  0.44950  0.02810  Biso   1.000  C
  N5       1.0000 0.21073  0.61200  0.19139  Biso   1.000  N
  O11      1.0000 0.42946  0.52464  0.13711  Biso   1.000  O
  O12      1.0000 0.43186  0.52686  0.21822  Biso   1.000  O
  O13      1.0000 0.06499  0.48897  0.05058  Biso   1.000  O
  O14      1.0000 0.02523  0.56370  0.05014  Biso   1.000  O
  C49      1.0000 0.41049  0.53315  0.17791  Biso   1.000  C
  C50      1.0000 0.35760  0.55325  0.18050  Biso   1.000  C
  C51      1.0000 0.33644  0.56378  0.22536  Biso   1.000  C
  H49      1.0000 0.35510  0.55840  0.25370  Biso   1.000  H
  C52      1.0000 0.28767  0.58236  0.22884  Biso   1.000  C
  H50      1.0000 0.27360  0.58880  0.25940  Biso   1.000  H
  C53      1.0000 0.26020  0.59123  0.18733  Biso   1.000  C
  C54      1.0000 0.28122  0.58106  0.14217  Biso   1.000  C
  H51      1.0000 0.26270  0.58700  0.11390  Biso   1.000  H
  C55      1.0000 0.32949  0.56212  0.13881  Biso   1.000  C
  H52      1.0000 0.34330  0.55520  0.10830  Biso   1.000  H
  C56      1.0000 0.05950  0.53401  0.06409  Biso   1.000  C
  C57      1.0000 0.09767  0.55476  0.09930  Biso   1.000  C
  C58      1.0000 0.09799  0.60531  0.11143  Biso   1.000  C
  H53      1.0000 0.07350  0.62670  0.09860  Biso   1.000  H
  C59      1.0000 0.13440  0.62441  0.14255  Biso   1.000  C
  H54      1.0000 0.13410  0.65850  0.15060  Biso   1.000  H
  C60      1.0000 0.17157  0.59294  0.16192  Biso   1.000  C
  C61      1.0000 0.16965  0.54189  0.15071  Biso   1.000  C
  H55      1.0000 0.19310  0.52010  0.16460  Biso   1.000  H
  C62      1.0000 0.13385  0.52301  0.11964  Biso   1.000  C
  H56      1.0000 0.13370  0.48880  0.11210  Biso   1.000  H
  C63      1.0000 0.20417  0.65613  0.22112  Biso   1.000  C
  C64      1.0000 0.24065  0.69326  0.22092  Biso   1.000  C
  H57      1.0000 0.26900  0.69000  0.20110  Biso   1.000  H
  C65      1.0000 0.46160  0.48090  0.32930  Biso   1.000  C
  H58      1.0000 0.43440  0.46710  0.31250  Biso   1.000  H
  C66      1.0000 0.46050  0.48080  0.37930  Biso   1.000  C
  O15      1.0000 0.51150  0.51550  0.45230  Biso   1.000  O
  N6       1.0000 0.41820  0.46300  0.45280  Biso   1.000  N
  C67      1.0000 0.41700  0.45540  0.40480  Biso   1.000  C
  H59      1.0000 0.39230  0.43670  0.38890  Biso   1.000  H
  C68      1.0000 0.37010  0.44750  0.47350  Biso   1.000  C
  H60      1.0000 0.35850  0.41530  0.46200  Biso   1.000  H
  H61      1.0000 0.34700  0.47280  0.46200  Biso   1.000  H
  C69      1.0000 0.53610  0.53530  0.02830  Biso   1.000  C
  H62      1.0000 0.52810  0.56900  0.04000  Biso   1.000  H
  H63      1.0000 0.56780  0.53090  0.03980  Biso   1.000  H
  H64      1.0000 0.12690  0.41130  0.02850  Biso   1.000  H
  H65      1.0000 0.16950  0.34650  0.97150  Biso   1.000  H
  H66      1.0000 0.01470  0.34180  0.97140  Biso   1.000  H
  H67      1.0000 0.05730  0.27300  0.02850  Biso   1.000  H
  C70      1.0000 0.07570  0.36740  0.95290  Biso   1.000  C
  H68      1.0000 0.08940  0.39420  0.93270  Biso   1.000  H
  H69      1.0000 0.04390  0.35690  0.93850  Biso   1.000  H
  C71      1.0000 0.11210  0.32290  0.95220  Biso   1.000  C
  H70      1.0000 0.09920  0.29800  0.92940  Biso   1.000  H
  H71      1.0000 0.14420  0.33470  0.93940  Biso   1.000  H
  H72      1.0000 0.56950  0.52660  0.04000  Biso   1.000  H
  C72      1.0000 0.44950  0.49900  0.02810  Biso   1.000  C
  N7       1.0000 0.78927  0.38800  0.19139  Biso   1.000  N
  O16      1.0000 0.57054  0.47536  0.13711  Biso   1.000  O
  O17      1.0000 0.56814  0.47314  0.21822  Biso   1.000  O
  O18      1.0000 0.93501  0.51103  0.05058  Biso   1.000  O
  O19      1.0000 0.97477  0.43630  0.05014  Biso   1.000  O
  C73      1.0000 0.58951  0.46685  0.17791  Biso   1.000  C
  C74      1.0000 0.64240  0.44675  0.18050  Biso   1.000  C
  C75      1.0000 0.66356  0.43622  0.22536  Biso   1.000  C
  H73      1.0000 0.64490  0.44160  0.25370  Biso   1.000  H
  C76      1.0000 0.71233  0.41764  0.22884  Biso   1.000  C
  H74      1.0000 0.72640  0.41120  0.25940  Biso   1.000  H
  C77      1.0000 0.73980  0.40877  0.18733  Biso   1.000  C
  C78      1.0000 0.71878  0.41894  0.14217  Biso   1.000  C
  H75      1.0000 0.73730  0.41300  0.11390  Biso   1.000  H
  C79      1.0000 0.67051  0.43788  0.13881  Biso   1.000  C
  H76      1.0000 0.65670  0.44480  0.10830  Biso   1.000  H
  C80      1.0000 0.94050  0.46599  0.06409  Biso   1.000  C
  C81      1.0000 0.90233  0.44524  0.09930  Biso   1.000  C
  C82      1.0000 0.90201  0.39469  0.11143  Biso   1.000  C
  H77      1.0000 0.92650  0.37330  0.09860  Biso   1.000  H
  C83      1.0000 0.86560  0.37559  0.14255  Biso   1.000  C
  H78      1.0000 0.86590  0.34150  0.15060  Biso   1.000  H
  C84      1.0000 0.82843  0.40706  0.16192  Biso   1.000  C
  C85      1.0000 0.83035  0.45811  0.15071  Biso   1.000  C
  H79      1.0000 0.80690  0.47990  0.16460  Biso   1.000  H
  C86      1.0000 0.86615  0.47699  0.11964  Biso   1.000  C
  H80      1.0000 0.86630  0.51120  0.11210  Biso   1.000  H
  C87      1.0000 0.79583  0.34387  0.22112  Biso   1.000  C
  C88      1.0000 0.75935  0.30674  0.22092  Biso   1.000  C
  H81      1.0000 0.73100  0.31000  0.20110  Biso   1.000  H
  C89      1.0000 0.53840  0.51910  0.32930  Biso   1.000  C
  H82      1.0000 0.56560  0.53290  0.31250  Biso   1.000  H
  C90      1.0000 0.53950  0.51920  0.37930  Biso   1.000  C
  O20      1.0000 0.48850  0.48450  0.45230  Biso   1.000  O
  N8       1.0000 0.58180  0.53700  0.45280  Biso   1.000  N
  C91      1.0000 0.58300  0.54460  0.40480  Biso   1.000  C
  H83      1.0000 0.60770  0.56330  0.38890  Biso   1.000  H
  C92      1.0000 0.62990  0.55250  0.47350  Biso   1.000  C
  H84      1.0000 0.64150  0.58470  0.46200  Biso   1.000  H
  H85      1.0000 0.65300  0.52720  0.46200  Biso   1.000  H
  C93      1.0000 0.46390  0.46470  0.02830  Biso   1.000  C
  H86      1.0000 0.47190  0.43100  0.04000  Biso   1.000  H
  H87      1.0000 0.43220  0.46910  0.03980  Biso   1.000  H
  H88      1.0000 0.87310  0.58870  0.02850  Biso   1.000  H
  H89      1.0000 0.83050  0.65350  0.97150  Biso   1.000  H
  H90      1.0000 0.98530  0.65820  0.97140  Biso   1.000  H
  H91      1.0000 0.94270  0.72700  0.02850  Biso   1.000  H
  C94      1.0000 0.92430  0.63260  0.95290  Biso   1.000  C
  H92      1.0000 0.91060  0.60580  0.93270  Biso   1.000  H
  H93      1.0000 0.95610  0.64310  0.93850  Biso   1.000  H
  C95      1.0000 0.88790  0.67710  0.95220  Biso   1.000  C
  H94      1.0000 0.90080  0.70200  0.92940  Biso   1.000  H
  H95      1.0000 0.85580  0.66530  0.93940  Biso   1.000  H
  H96      1.0000 0.43050  0.47340  0.04000  Biso   1.000  H
  C96      1.0000 0.55050  0.50100  0.02810  Biso   1.000  C
  N9       1.0000 0.88800  0.28927  0.30861  Biso   1.000  N
  O21      1.0000 0.97536  0.07054  0.36289  Biso   1.000  O
  O22      1.0000 0.97314  0.06814  0.28178  Biso   1.000  O
  O23      1.0000 0.01103  0.43501  0.44942  Biso   1.000  O
  O24      1.0000 0.93630  0.47477  0.44986  Biso   1.000  O
  C97      1.0000 0.96685  0.08951  0.32209  Biso   1.000  C
  C98      1.0000 0.94675  0.14240  0.31950  Biso   1.000  C
  C99      1.0000 0.93622  0.16356  0.27464  Biso   1.000  C
  H97      1.0000 0.94160  0.14490  0.24630  Biso   1.000  H
  C100     1.0000 0.91764  0.21233  0.27116  Biso   1.000  C
  H98      1.0000 0.91120  0.22640  0.24060  Biso   1.000  H
  C101     1.0000 0.90877  0.23980  0.31267  Biso   1.000  C
  C102     1.0000 0.91894  0.21878  0.35783  Biso   1.000  C
  H99      1.0000 0.91300  0.23730  0.38610  Biso   1.000  H
  C103     1.0000 0.93788  0.17051  0.36119  Biso   1.000  C
  H100     1.0000 0.94480  0.15670  0.39170  Biso   1.000  H
  C104     1.0000 0.96599  0.44050  0.43591  Biso   1.000  C
  C105     1.0000 0.94524  0.40233  0.40070  Biso   1.000  C
  C106     1.0000 0.89469  0.40201  0.38857  Biso   1.000  C
  H101     1.0000 0.87330  0.42650  0.40140  Biso   1.000  H
  C107     1.0000 0.87559  0.36560  0.35745  Biso   1.000  C
  H102     1.0000 0.84150  0.36590  0.34940  Biso   1.000  H
  C108     1.0000 0.90706  0.32843  0.33808  Biso   1.000  C
  C109     1.0000 0.95811  0.33035  0.34929  Biso   1.000  C
  H103     1.0000 0.97990  0.30690  0.33540  Biso   1.000  H
  C110     1.0000 0.97699  0.36615  0.38036  Biso   1.000  C
  H104     1.0000 0.01120  0.36630  0.38790  Biso   1.000  H
  C111     1.0000 0.84387  0.29583  0.27888  Biso   1.000  C
  C112     1.0000 0.80674  0.25935  0.27908  Biso   1.000  C
  H105     1.0000 0.81000  0.23100  0.29890  Biso   1.000  H
  C113     1.0000 0.01910  0.03840  0.17070  Biso   1.000  C
  H106     1.0000 0.03290  0.06560  0.18750  Biso   1.000  H
  C114     1.0000 0.01920  0.03950  0.12070  Biso   1.000  C
  O25      1.0000 0.98450  0.98850  0.04770  Biso   1.000  O
  N10      1.0000 0.03700  0.08180  0.04720  Biso   1.000  N
  C115     1.0000 0.04460  0.08300  0.09520  Biso   1.000  C
  H107     1.0000 0.06330  0.10770  0.11110  Biso   1.000  H
  C116     1.0000 0.05250  0.12990  0.02650  Biso   1.000  C
  H108     1.0000 0.08470  0.14150  0.03800  Biso   1.000  H
  H109     1.0000 0.02720  0.15300  0.03800  Biso   1.000  H
  C117     1.0000 0.96470  0.96390  0.47170  Biso   1.000  C
  H110     1.0000 0.93100  0.97190  0.46000  Biso   1.000  H
  H111     1.0000 0.96910  0.93220  0.46020  Biso   1.000  H
  H112     1.0000 0.08870  0.37310  0.47150  Biso   1.000  H
  H113     1.0000 0.15350  0.33050  0.52850  Biso   1.000  H
  H114     1.0000 0.15820  0.48530  0.52860  Biso   1.000  H
  H115     1.0000 0.22700  0.44270  0.47150  Biso   1.000  H
  C118     1.0000 0.13260  0.42430  0.54710  Biso   1.000  C
  H116     1.0000 0.10580  0.41060  0.56730  Biso   1.000  H
  H117     1.0000 0.14310  0.45610  0.56150  Biso   1.000  H
  C119     1.0000 0.17710  0.38790  0.54780  Biso   1.000  C
  H118     1.0000 0.20200  0.40080  0.57060  Biso   1.000  H
  H119     1.0000 0.16530  0.35580  0.56060  Biso   1.000  H
  H120     1.0000 0.97340  0.93050  0.46000  Biso   1.000  H
  C120     1.0000 0.00100  0.05050  0.47190  Biso   1.000  C
  N11      1.0000 0.11200  0.71073  0.30861  Biso   1.000  N
  O26      1.0000 0.02464  0.92946  0.36289  Biso   1.000  O
  O27      1.0000 0.02686  0.93186  0.28178  Biso   1.000  O
  O28      1.0000 0.98897  0.56499  0.44942  Biso   1.000  O
  O29      1.0000 0.06370  0.52523  0.44986  Biso   1.000  O
  C121     1.0000 0.03315  0.91049  0.32209  Biso   1.000  C
  C122     1.0000 0.05325  0.85760  0.31950  Biso   1.000  C
  C123     1.0000 0.06378  0.83644  0.27464  Biso   1.000  C
  H121     1.0000 0.05840  0.85510  0.24630  Biso   1.000  H
  C124     1.0000 0.08236  0.78767  0.27116  Biso   1.000  C
  H122     1.0000 0.08880  0.77360  0.24060  Biso   1.000  H
  C125     1.0000 0.09123  0.76020  0.31267  Biso   1.000  C
  C126     1.0000 0.08106  0.78122  0.35783  Biso   1.000  C
  H123     1.0000 0.08700  0.76270  0.38610  Biso   1.000  H
  C127     1.0000 0.06212  0.82949  0.36119  Biso   1.000  C
  H124     1.0000 0.05520  0.84330  0.39170  Biso   1.000  H
  C128     1.0000 0.03401  0.55950  0.43591  Biso   1.000  C
  C129     1.0000 0.05476  0.59767  0.40070  Biso   1.000  C
  C130     1.0000 0.10531  0.59799  0.38857  Biso   1.000  C
  H125     1.0000 0.12670  0.57350  0.40140  Biso   1.000  H
  C131     1.0000 0.12441  0.63440  0.35745  Biso   1.000  C
  H126     1.0000 0.15850  0.63410  0.34940  Biso   1.000  H
  C132     1.0000 0.09294  0.67157  0.33808  Biso   1.000  C
  C133     1.0000 0.04189  0.66965  0.34929  Biso   1.000  C
  H127     1.0000 0.02010  0.69310  0.33540  Biso   1.000  H
  C134     1.0000 0.02301  0.63385  0.38036  Biso   1.000  C
  H128     1.0000 0.98880  0.63370  0.38790  Biso   1.000  H
  C135     1.0000 0.15613  0.70417  0.27888  Biso   1.000  C
  C136     1.0000 0.19326  0.74065  0.27908  Biso   1.000  C
  H129     1.0000 0.19000  0.76900  0.29890  Biso   1.000  H
  C137     1.0000 0.98090  0.96160  0.17070  Biso   1.000  C
  H130     1.0000 0.96710  0.93440  0.18750  Biso   1.000  H
  C138     1.0000 0.98080  0.96050  0.12070  Biso   1.000  C
  O30      1.0000 0.01550  0.01150  0.04770  Biso   1.000  O
  N12      1.0000 0.96300  0.91820  0.04720  Biso   1.000  N
  C139     1.0000 0.95540  0.91700  0.09520  Biso   1.000  C
  H131     1.0000 0.93670  0.89230  0.11110  Biso   1.000  H
  C140     1.0000 0.94750  0.87010  0.02650  Biso   1.000  C
  H132     1.0000 0.91530  0.85850  0.03800  Biso   1.000  H
  H133     1.0000 0.97280  0.84700  0.03800  Biso   1.000  H
  C141     1.0000 0.03530  0.03610  0.47170  Biso   1.000  C
  H134     1.0000 0.06900  0.02810  0.46000  Biso   1.000  H
  H135     1.0000 0.03090  0.06780  0.46020  Biso   1.000  H
  H136     1.0000 0.91130  0.62690  0.47150  Biso   1.000  H
  H137     1.0000 0.84650  0.66950  0.52850  Biso   1.000  H
  H138     1.0000 0.84180  0.51470  0.52860  Biso   1.000  H
  H139     1.0000 0.77300  0.55730  0.47150  Biso   1.000  H
  C142     1.0000 0.86740  0.57570  0.54710  Biso   1.000  C
  H140     1.0000 0.89420  0.58940  0.56730  Biso   1.000  H
  H141     1.0000 0.85690  0.54390  0.56150  Biso   1.000  H
  C143     1.0000 0.82290  0.61210  0.54780  Biso   1.000  C
  H142     1.0000 0.79800  0.59920  0.57060  Biso   1.000  H
  H143     1.0000 0.83470  0.64420  0.56060  Biso   1.000  H
  H144     1.0000 0.02660  0.06950  0.46000  Biso   1.000  H
  C144     1.0000 0.99900  0.94950  0.47190  Biso   1.000  C
  N13      1.0000 0.28927  0.11200  0.30861  Biso   1.000  N
  O31      1.0000 0.07054  0.02464  0.36289  Biso   1.000  O
  O32      1.0000 0.06814  0.02686  0.28178  Biso   1.000  O
  O33      1.0000 0.43501  0.98897  0.44942  Biso   1.000  O
  O34      1.0000 0.47477  0.06370  0.44986  Biso   1.000  O
  C145     1.0000 0.08951  0.03315  0.32209  Biso   1.000  C
  C146     1.0000 0.14240  0.05325  0.31950  Biso   1.000  C
  C147     1.0000 0.16356  0.06378  0.27464  Biso   1.000  C
  H145     1.0000 0.14490  0.05840  0.24630  Biso   1.000  H
  C148     1.0000 0.21233  0.08236  0.27116  Biso   1.000  C
  H146     1.0000 0.22640  0.08880  0.24060  Biso   1.000  H
  C149     1.0000 0.23980  0.09123  0.31267  Biso   1.000  C
  C150     1.0000 0.21878  0.08106  0.35783  Biso   1.000  C
  H147     1.0000 0.23730  0.08700  0.38610  Biso   1.000  H
  C151     1.0000 0.17051  0.06212  0.36119  Biso   1.000  C
  H148     1.0000 0.15670  0.05520  0.39170  Biso   1.000  H
  C152     1.0000 0.44050  0.03401  0.43591  Biso   1.000  C
  C153     1.0000 0.40233  0.05476  0.40070  Biso   1.000  C
  C154     1.0000 0.40201  0.10531  0.38857  Biso   1.000  C
  H149     1.0000 0.42650  0.12670  0.40140  Biso   1.000  H
  C155     1.0000 0.36560  0.12441  0.35745  Biso   1.000  C
  H150     1.0000 0.36590  0.15850  0.34940  Biso   1.000  H
  C156     1.0000 0.32843  0.09294  0.33808  Biso   1.000  C
  C157     1.0000 0.33035  0.04189  0.34929  Biso   1.000  C
  H151     1.0000 0.30690  0.02010  0.33540  Biso   1.000  H
  C158     1.0000 0.36615  0.02301  0.38036  Biso   1.000  C
  H152     1.0000 0.36630  0.98880  0.38790  Biso   1.000  H
  C159     1.0000 0.29583  0.15613  0.27888  Biso   1.000  C
  C160     1.0000 0.25935  0.19326  0.27908  Biso   1.000  C
  H153     1.0000 0.23100  0.19000  0.29890  Biso   1.000  H
  C161     1.0000 0.03840  0.98090  0.17070  Biso   1.000  C
  H154     1.0000 0.06560  0.96710  0.18750  Biso   1.000  H
  C162     1.0000 0.03950  0.98080  0.12070  Biso   1.000  C
  O35      1.0000 0.98850  0.01550  0.04770  Biso   1.000  O
  N14      1.0000 0.08180  0.96300  0.04720  Biso   1.000  N
  C163     1.0000 0.08300  0.95540  0.09520  Biso   1.000  C
  H155     1.0000 0.10770  0.93670  0.11110  Biso   1.000  H
  C164     1.0000 0.12990  0.94750  0.02650  Biso   1.000  C
  H156     1.0000 0.14150  0.91530  0.03800  Biso   1.000  H
  H157     1.0000 0.15300  0.97280  0.03800  Biso   1.000  H
  C165     1.0000 0.96390  0.03530  0.47170  Biso   1.000  C
  H158     1.0000 0.97190  0.06900  0.46000  Biso   1.000  H
  H159     1.0000 0.93220  0.03090  0.46020  Biso   1.000  H
  H160     1.0000 0.37310  0.91130  0.47150  Biso   1.000  H
  H161     1.0000 0.33050  0.84650  0.52850  Biso   1.000  H
  H162     1.0000 0.48530  0.84180  0.52860  Biso   1.000  H
  H163     1.0000 0.44270  0.77300  0.47150  Biso   1.000  H
  C166     1.0000 0.42430  0.86740  0.54710  Biso   1.000  C
  H164     1.0000 0.41060  0.89420  0.56730  Biso   1.000  H
  H165     1.0000 0.45610  0.85690  0.56150  Biso   1.000  H
  C167     1.0000 0.38790  0.82290  0.54780  Biso   1.000  C
  H166     1.0000 0.40080  0.79800  0.57060  Biso   1.000  H
  H167     1.0000 0.35580  0.83470  0.56060  Biso   1.000  H
  H168     1.0000 0.93050  0.02660  0.46000  Biso   1.000  H
  C168     1.0000 0.05050  0.99900  0.47190  Biso   1.000  C
  N15      1.0000 0.71073  0.88800  0.30861  Biso   1.000  N
  O36      1.0000 0.92946  0.97536  0.36289  Biso   1.000  O
  O37      1.0000 0.93186  0.97314  0.28178  Biso   1.000  O
  O38      1.0000 0.56499  0.01103  0.44942  Biso   1.000  O
  O39      1.0000 0.52523  0.93630  0.44986  Biso   1.000  O
  C169     1.0000 0.91049  0.96685  0.32209  Biso   1.000  C
  C170     1.0000 0.85760  0.94675  0.31950  Biso   1.000  C
  C171     1.0000 0.83644  0.93622  0.27464  Biso   1.000  C
  H169     1.0000 0.85510  0.94160  0.24630  Biso   1.000  H
  C172     1.0000 0.78767  0.91764  0.27116  Biso   1.000  C
  H170     1.0000 0.77360  0.91120  0.24060  Biso   1.000  H
  C173     1.0000 0.76020  0.90877  0.31267  Biso   1.000  C
  C174     1.0000 0.78122  0.91894  0.35783  Biso   1.000  C
  H171     1.0000 0.76270  0.91300  0.38610  Biso   1.000  H
  C175     1.0000 0.82949  0.93788  0.36119  Biso   1.000  C
  H172     1.0000 0.84330  0.94480  0.39170  Biso   1.000  H
  C176     1.0000 0.55950  0.96599  0.43591  Biso   1.000  C
  C177     1.0000 0.59767  0.94524  0.40070  Biso   1.000  C
  C178     1.0000 0.59799  0.89469  0.38857  Biso   1.000  C
  H173     1.0000 0.57350  0.87330  0.40140  Biso   1.000  H
  C179     1.0000 0.63440  0.87559  0.35745  Biso   1.000  C
  H174     1.0000 0.63410  0.84150  0.34940  Biso   1.000  H
  C180     1.0000 0.67157  0.90706  0.33808  Biso   1.000  C
  C181     1.0000 0.66965  0.95811  0.34929  Biso   1.000  C
  H175     1.0000 0.69310  0.97990  0.33540  Biso   1.000  H
  C182     1.0000 0.63385  0.97699  0.38036  Biso   1.000  C
  H176     1.0000 0.63370  0.01120  0.38790  Biso   1.000  H
  C183     1.0000 0.70417  0.84387  0.27888  Biso   1.000  C
  C184     1.0000 0.74065  0.80674  0.27908  Biso   1.000  C
  H177     1.0000 0.76900  0.81000  0.29890  Biso   1.000  H
  C185     1.0000 0.96160  0.01910  0.17070  Biso   1.000  C
  H178     1.0000 0.93440  0.03290  0.18750  Biso   1.000  H
  C186     1.0000 0.96050  0.01920  0.12070  Biso   1.000  C
  O40      1.0000 0.01150  0.98450  0.04770  Biso   1.000  O
  N16      1.0000 0.91820  0.03700  0.04720  Biso   1.000  N
  C187     1.0000 0.91700  0.04460  0.09520  Biso   1.000  C
  H179     1.0000 0.89230  0.06330  0.11110  Biso   1.000  H
  C188     1.0000 0.87010  0.05250  0.02650  Biso   1.000  C
  H180     1.0000 0.85850  0.08470  0.03800  Biso   1.000  H
  H181     1.0000 0.84700  0.02720  0.03800  Biso   1.000  H
  C189     1.0000 0.03610  0.96470  0.47170  Biso   1.000  C
  H182     1.0000 0.02810  0.93100  0.46000  Biso   1.000  H
  H183     1.0000 0.06780  0.96910  0.46020  Biso   1.000  H
  H184     1.0000 0.62690  0.08870  0.47150  Biso   1.000  H
  H185     1.0000 0.66950  0.15350  0.52850  Biso   1.000  H
  H186     1.0000 0.51470  0.15820  0.52860  Biso   1.000  H
  H187     1.0000 0.55730  0.22700  0.47150  Biso   1.000  H
  C190     1.0000 0.57570  0.13260  0.54710  Biso   1.000  C
  H188     1.0000 0.58940  0.10580  0.56730  Biso   1.000  H
  H189     1.0000 0.54390  0.14310  0.56150  Biso   1.000  H
  C191     1.0000 0.61210  0.17710  0.54780  Biso   1.000  C
  H190     1.0000 0.59920  0.20200  0.57060  Biso   1.000  H
  H191     1.0000 0.64420  0.16530  0.56060  Biso   1.000  H
  H192     1.0000 0.06950  0.97340  0.46000  Biso   1.000  H
  C192     1.0000 0.94950  0.00100  0.47190  Biso   1.000  C
  N17      1.0000 0.38800  0.21073  0.80861  Biso   1.000  N
  O41      1.0000 0.47536  0.42946  0.86289  Biso   1.000  O
  O42      1.0000 0.47314  0.43186  0.78178  Biso   1.000  O
  O43      1.0000 0.51103  0.06499  0.94942  Biso   1.000  O
  O44      1.0000 0.43630  0.02523  0.94986  Biso   1.000  O
  C193     1.0000 0.46685  0.41049  0.82209  Biso   1.000  C
  C194     1.0000 0.44675  0.35760  0.81950  Biso   1.000  C
  C195     1.0000 0.43622  0.33644  0.77464  Biso   1.000  C
  H193     1.0000 0.44160  0.35510  0.74630  Biso   1.000  H
  C196     1.0000 0.41764  0.28767  0.77116  Biso   1.000  C
  H194     1.0000 0.41120  0.27360  0.74060  Biso   1.000  H
  C197     1.0000 0.40877  0.26020  0.81267  Biso   1.000  C
  C198     1.0000 0.41894  0.28122  0.85783  Biso   1.000  C
  H195     1.0000 0.41300  0.26270  0.88610  Biso   1.000  H
  C199     1.0000 0.43788  0.32949  0.86119  Biso   1.000  C
  H196     1.0000 0.44480  0.34330  0.89170  Biso   1.000  H
  C200     1.0000 0.46599  0.05950  0.93591  Biso   1.000  C
  C201     1.0000 0.44524  0.09767  0.90070  Biso   1.000  C
  C202     1.0000 0.39469  0.09799  0.88857  Biso   1.000  C
  H197     1.0000 0.37330  0.07350  0.90140  Biso   1.000  H
  C203     1.0000 0.37559  0.13440  0.85745  Biso   1.000  C
  H198     1.0000 0.34150  0.13410  0.84940  Biso   1.000  H
  C204     1.0000 0.40706  0.17157  0.83808  Biso   1.000  C
  C205     1.0000 0.45811  0.16965  0.84929  Biso   1.000  C
  H199     1.0000 0.47990  0.19310  0.83540  Biso   1.000  H
  C206     1.0000 0.47699  0.13385  0.88036  Biso   1.000  C
  H200     1.0000 0.51120  0.13370  0.88790  Biso   1.000  H
  C207     1.0000 0.34387  0.20417  0.77888  Biso   1.000  C
  C208     1.0000 0.30674  0.24065  0.77908  Biso   1.000  C
  H201     1.0000 0.31000  0.26900  0.79890  Biso   1.000  H
  C209     1.0000 0.51910  0.46160  0.67070  Biso   1.000  C
  H202     1.0000 0.53290  0.43440  0.68750  Biso   1.000  H
  C210     1.0000 0.51920  0.46050  0.62070  Biso   1.000  C
  O45      1.0000 0.48450  0.51150  0.54770  Biso   1.000  O
  N18      1.0000 0.53700  0.41820  0.54720  Biso   1.000  N
  C211     1.0000 0.54460  0.41700  0.59520  Biso   1.000  C
  H203     1.0000 0.56330  0.39230  0.61110  Biso   1.000  H
  C212     1.0000 0.55250  0.37010  0.52650  Biso   1.000  C
  H204     1.0000 0.58470  0.35850  0.53800  Biso   1.000  H
  H205     1.0000 0.52720  0.34700  0.53800  Biso   1.000  H
  C213     1.0000 0.46470  0.53610  0.97170  Biso   1.000  C
  H206     1.0000 0.43100  0.52810  0.96000  Biso   1.000  H
  H207     1.0000 0.46910  0.56780  0.96020  Biso   1.000  H
  H208     1.0000 0.58870  0.12690  0.97150  Biso   1.000  H
  H209     1.0000 0.65350  0.16950  0.02850  Biso   1.000  H
  H210     1.0000 0.65820  0.01470  0.02860  Biso   1.000  H
  H211     1.0000 0.72700  0.05730  0.97150  Biso   1.000  H
  C214     1.0000 0.63260  0.07570  0.04710  Biso   1.000  C
  H212     1.0000 0.60580  0.08940  0.06730  Biso   1.000  H
  H213     1.0000 0.64310  0.04390  0.06150  Biso   1.000  H
  C215     1.0000 0.67710  0.11210  0.04780  Biso   1.000  C
  H214     1.0000 0.70200  0.09920  0.07060  Biso   1.000  H
  H215     1.0000 0.66530  0.14420  0.06060  Biso   1.000  H
  H216     1.0000 0.47340  0.56950  0.96000  Biso   1.000  H
  C216     1.0000 0.50100  0.44950  0.97190  Biso   1.000  C
  N19      1.0000 0.61200  0.78927  0.80861  Biso   1.000  N
  O46      1.0000 0.52464  0.57054  0.86289  Biso   1.000  O
  O47      1.0000 0.52686  0.56814  0.78178  Biso   1.000  O
  O48      1.0000 0.48897  0.93501  0.94942  Biso   1.000  O
  O49      1.0000 0.56370  0.97477  0.94986  Biso   1.000  O
  C217     1.0000 0.53315  0.58951  0.82209  Biso   1.000  C
  C218     1.0000 0.55325  0.64240  0.81950  Biso   1.000  C
  C219     1.0000 0.56378  0.66356  0.77464  Biso   1.000  C
  H217     1.0000 0.55840  0.64490  0.74630  Biso   1.000  H
  C220     1.0000 0.58236  0.71233  0.77116  Biso   1.000  C
  H218     1.0000 0.58880  0.72640  0.74060  Biso   1.000  H
  C221     1.0000 0.59123  0.73980  0.81267  Biso   1.000  C
  C222     1.0000 0.58106  0.71878  0.85783  Biso   1.000  C
  H219     1.0000 0.58700  0.73730  0.88610  Biso   1.000  H
  C223     1.0000 0.56212  0.67051  0.86119  Biso   1.000  C
  H220     1.0000 0.55520  0.65670  0.89170  Biso   1.000  H
  C224     1.0000 0.53401  0.94050  0.93591  Biso   1.000  C
  C225     1.0000 0.55476  0.90233  0.90070  Biso   1.000  C
  C226     1.0000 0.60531  0.90201  0.88857  Biso   1.000  C
  H221     1.0000 0.62670  0.92650  0.90140  Biso   1.000  H
  C227     1.0000 0.62441  0.86560  0.85745  Biso   1.000  C
  H222     1.0000 0.65850  0.86590  0.84940  Biso   1.000  H
  C228     1.0000 0.59294  0.82843  0.83808  Biso   1.000  C
  C229     1.0000 0.54189  0.83035  0.84929  Biso   1.000  C
  H223     1.0000 0.52010  0.80690  0.83540  Biso   1.000  H
  C230     1.0000 0.52301  0.86615  0.88036  Biso   1.000  C
  H224     1.0000 0.48880  0.86630  0.88790  Biso   1.000  H
  C231     1.0000 0.65613  0.79583  0.77888  Biso   1.000  C
  C232     1.0000 0.69326  0.75935  0.77908  Biso   1.000  C
  H225     1.0000 0.69000  0.73100  0.79890  Biso   1.000  H
  C233     1.0000 0.48090  0.53840  0.67070  Biso   1.000  C
  H226     1.0000 0.46710  0.56560  0.68750  Biso   1.000  H
  C234     1.0000 0.48080  0.53950  0.62070  Biso   1.000  C
  O50      1.0000 0.51550  0.48850  0.54770  Biso   1.000  O
  N20      1.0000 0.46300  0.58180  0.54720  Biso   1.000  N
  C235     1.0000 0.45540  0.58300  0.59520  Biso   1.000  C
  H227     1.0000 0.43670  0.60770  0.61110  Biso   1.000  H
  C236     1.0000 0.44750  0.62990  0.52650  Biso   1.000  C
  H228     1.0000 0.41530  0.64150  0.53800  Biso   1.000  H
  H229     1.0000 0.47280  0.65300  0.53800  Biso   1.000  H
  C237     1.0000 0.53530  0.46390  0.97170  Biso   1.000  C
  H230     1.0000 0.56900  0.47190  0.96000  Biso   1.000  H
  H231     1.0000 0.53090  0.43220  0.96020  Biso   1.000  H
  H232     1.0000 0.41130  0.87310  0.97150  Biso   1.000  H
  H233     1.0000 0.34650  0.83050  0.02850  Biso   1.000  H
  H234     1.0000 0.34180  0.98530  0.02860  Biso   1.000  H
  H235     1.0000 0.27300  0.94270  0.97150  Biso   1.000  H
  C238     1.0000 0.36740  0.92430  0.04710  Biso   1.000  C
  H236     1.0000 0.39420  0.91060  0.06730  Biso   1.000  H
  H237     1.0000 0.35690  0.95610  0.06150  Biso   1.000  H
  C239     1.0000 0.32290  0.88790  0.04780  Biso   1.000  C
  H238     1.0000 0.29800  0.90080  0.07060  Biso   1.000  H
  H239     1.0000 0.33470  0.85580  0.06060  Biso   1.000  H
  H240     1.0000 0.52660  0.43050  0.96000  Biso   1.000  H
  C240     1.0000 0.49900  0.55050  0.97190  Biso   1.000  C
  N21      1.0000 0.78927  0.38800  0.80861  Biso   1.000  N
  O51      1.0000 0.57054  0.47536  0.86289  Biso   1.000  O
  O52      1.0000 0.56814  0.47314  0.78178  Biso   1.000  O
  O53      1.0000 0.93501  0.51103  0.94942  Biso   1.000  O
  O54      1.0000 0.97477  0.43630  0.94986  Biso   1.000  O
  C241     1.0000 0.58951  0.46685  0.82209  Biso   1.000  C
  C242     1.0000 0.64240  0.44675  0.81950  Biso   1.000  C
  C243     1.0000 0.66356  0.43622  0.77464  Biso   1.000  C
  H241     1.0000 0.64490  0.44160  0.74630  Biso   1.000  H
  C244     1.0000 0.71233  0.41764  0.77116  Biso   1.000  C
  H242     1.0000 0.72640  0.41120  0.74060  Biso   1.000  H
  C245     1.0000 0.73980  0.40877  0.81267  Biso   1.000  C
  C246     1.0000 0.71878  0.41894  0.85783  Biso   1.000  C
  H243     1.0000 0.73730  0.41300  0.88610  Biso   1.000  H
  C247     1.0000 0.67051  0.43788  0.86119  Biso   1.000  C
  H244     1.0000 0.65670  0.44480  0.89170  Biso   1.000  H
  C248     1.0000 0.94050  0.46599  0.93591  Biso   1.000  C
  C249     1.0000 0.90233  0.44524  0.90070  Biso   1.000  C
  C250     1.0000 0.90201  0.39469  0.88857  Biso   1.000  C
  H245     1.0000 0.92650  0.37330  0.90140  Biso   1.000  H
  C251     1.0000 0.86560  0.37559  0.85745  Biso   1.000  C
  H246     1.0000 0.86590  0.34150  0.84940  Biso   1.000  H
  C252     1.0000 0.82843  0.40706  0.83808  Biso   1.000  C
  C253     1.0000 0.83035  0.45811  0.84929  Biso   1.000  C
  H247     1.0000 0.80690  0.47990  0.83540  Biso   1.000  H
  C254     1.0000 0.86615  0.47699  0.88036  Biso   1.000  C
  H248     1.0000 0.86630  0.51120  0.88790  Biso   1.000  H
  C255     1.0000 0.79583  0.34387  0.77888  Biso   1.000  C
  C256     1.0000 0.75935  0.30674  0.77908  Biso   1.000  C
  H249     1.0000 0.73100  0.31000  0.79890  Biso   1.000  H
  C257     1.0000 0.53840  0.51910  0.67070  Biso   1.000  C
  H250     1.0000 0.56560  0.53290  0.68750  Biso   1.000  H
  C258     1.0000 0.53950  0.51920  0.62070  Biso   1.000  C
  O55      1.0000 0.48850  0.48450  0.54770  Biso   1.000  O
  N22      1.0000 0.58180  0.53700  0.54720  Biso   1.000  N
  C259     1.0000 0.58300  0.54460  0.59520  Biso   1.000  C
  H251     1.0000 0.60770  0.56330  0.61110  Biso   1.000  H
  C260     1.0000 0.62990  0.55250  0.52650  Biso   1.000  C
  H252     1.0000 0.64150  0.58470  0.53800  Biso   1.000  H
  H253     1.0000 0.65300  0.52720  0.53800  Biso   1.000  H
  C261     1.0000 0.46390  0.46470  0.97170  Biso   1.000  C
  H254     1.0000 0.47190  0.43100  0.96000  Biso   1.000  H
  H255     1.0000 0.43220  0.46910  0.96020  Biso   1.000  H
  H256     1.0000 0.87310  0.58870  0.97150  Biso   1.000  H
  H257     1.0000 0.83050  0.65350  0.02850  Biso   1.000  H
  H258     1.0000 0.98530  0.65820  0.02860  Biso   1.000  H
  H259     1.0000 0.94270  0.72700  0.97150  Biso   1.000  H
  C262     1.0000 0.92430  0.63260  0.04710  Biso   1.000  C
  H260     1.0000 0.91060  0.60580  0.06730  Biso   1.000  H
  H261     1.0000 0.95610  0.64310  0.06150  Biso   1.000  H
  C263     1.0000 0.88790  0.67710  0.04780  Biso   1.000  C
  H262     1.0000 0.90080  0.70200  0.07060  Biso   1.000  H
  H263     1.0000 0.85580  0.66530  0.06060  Biso   1.000  H
  H264     1.0000 0.43050  0.47340  0.96000  Biso   1.000  H
  C264     1.0000 0.55050  0.50100  0.97190  Biso   1.000  C
  N23      1.0000 0.21073  0.61200  0.80861  Biso   1.000  N
  O56      1.0000 0.42946  0.52464  0.86289  Biso   1.000  O
  O57      1.0000 0.43186  0.52686  0.78178  Biso   1.000  O
  O58      1.0000 0.06499  0.48897  0.94942  Biso   1.000  O
  O59      1.0000 0.02523  0.56370  0.94986  Biso   1.000  O
  C265     1.0000 0.41049  0.53315  0.82209  Biso   1.000  C
  C266     1.0000 0.35760  0.55325  0.81950  Biso   1.000  C
  C267     1.0000 0.33644  0.56378  0.77464  Biso   1.000  C
  H265     1.0000 0.35510  0.55840  0.74630  Biso   1.000  H
  C268     1.0000 0.28767  0.58236  0.77116  Biso   1.000  C
  H266     1.0000 0.27360  0.58880  0.74060  Biso   1.000  H
  C269     1.0000 0.26020  0.59123  0.81267  Biso   1.000  C
  C270     1.0000 0.28122  0.58106  0.85783  Biso   1.000  C
  H267     1.0000 0.26270  0.58700  0.88610  Biso   1.000  H
  C271     1.0000 0.32949  0.56212  0.86119  Biso   1.000  C
  H268     1.0000 0.34330  0.55520  0.89170  Biso   1.000  H
  C272     1.0000 0.05950  0.53401  0.93591  Biso   1.000  C
  C273     1.0000 0.09767  0.55476  0.90070  Biso   1.000  C
  C274     1.0000 0.09799  0.60531  0.88857  Biso   1.000  C
  H269     1.0000 0.07350  0.62670  0.90140  Biso   1.000  H
  C275     1.0000 0.13440  0.62441  0.85745  Biso   1.000  C
  H270     1.0000 0.13410  0.65850  0.84940  Biso   1.000  H
  C276     1.0000 0.17157  0.59294  0.83808  Biso   1.000  C
  C277     1.0000 0.16965  0.54189  0.84929  Biso   1.000  C
  H271     1.0000 0.19310  0.52010  0.83540  Biso   1.000  H
  C278     1.0000 0.13385  0.52301  0.88036  Biso   1.000  C
  H272     1.0000 0.13370  0.48880  0.88790  Biso   1.000  H
  C279     1.0000 0.20417  0.65613  0.77888  Biso   1.000  C
  C280     1.0000 0.24065  0.69326  0.77908  Biso   1.000  C
  H273     1.0000 0.26900  0.69000  0.79890  Biso   1.000  H
  C281     1.0000 0.46160  0.48090  0.67070  Biso   1.000  C
  H274     1.0000 0.43440  0.46710  0.68750  Biso   1.000  H
  C282     1.0000 0.46050  0.48080  0.62070  Biso   1.000  C
  O60      1.0000 0.51150  0.51550  0.54770  Biso   1.000  O
  N24      1.0000 0.41820  0.46300  0.54720  Biso   1.000  N
  C283     1.0000 0.41700  0.45540  0.59520  Biso   1.000  C
  H275     1.0000 0.39230  0.43670  0.61110  Biso   1.000  H
  C284     1.0000 0.37010  0.44750  0.52650  Biso   1.000  C
  H276     1.0000 0.35850  0.41530  0.53800  Biso   1.000  H
  H277     1.0000 0.34700  0.47280  0.53800  Biso   1.000  H
  C285     1.0000 0.53610  0.53530  0.97170  Biso   1.000  C
  H278     1.0000 0.52810  0.56900  0.96000  Biso   1.000  H
  H279     1.0000 0.56780  0.53090  0.96020  Biso   1.000  H
  H280     1.0000 0.12690  0.41130  0.97150  Biso   1.000  H
  H281     1.0000 0.16950  0.34650  0.02850  Biso   1.000  H
  H282     1.0000 0.01470  0.34180  0.02860  Biso   1.000  H
  H283     1.0000 0.05730  0.27300  0.97150  Biso   1.000  H
  C286     1.0000 0.07570  0.36740  0.04710  Biso   1.000  C
  H284     1.0000 0.08940  0.39420  0.06730  Biso   1.000  H
  H285     1.0000 0.04390  0.35690  0.06150  Biso   1.000  H
  C287     1.0000 0.11210  0.32290  0.04780  Biso   1.000  C
  H286     1.0000 0.09920  0.29800  0.07060  Biso   1.000  H
  H287     1.0000 0.14420  0.33470  0.06060  Biso   1.000  H
  H288     1.0000 0.56950  0.52660  0.96000  Biso   1.000  H
  C288     1.0000 0.44950  0.49900  0.97190  Biso   1.000  C
  N25      1.0000 0.11200  0.71073  0.69139  Biso   1.000  N
  O61      1.0000 0.02464  0.92946  0.63711  Biso   1.000  O
  O62      1.0000 0.02686  0.93186  0.71822  Biso   1.000  O
  O63      1.0000 0.98897  0.56499  0.55058  Biso   1.000  O
  O64      1.0000 0.06370  0.52523  0.55014  Biso   1.000  O
  C289     1.0000 0.03315  0.91049  0.67791  Biso   1.000  C
  C290     1.0000 0.05325  0.85760  0.68050  Biso   1.000  C
  C291     1.0000 0.06378  0.83644  0.72536  Biso   1.000  C
  H289     1.0000 0.05840  0.85510  0.75370  Biso   1.000  H
  C292     1.0000 0.08236  0.78767  0.72884  Biso   1.000  C
  H290     1.0000 0.08880  0.77360  0.75940  Biso   1.000  H
  C293     1.0000 0.09123  0.76020  0.68733  Biso   1.000  C
  C294     1.0000 0.08106  0.78122  0.64217  Biso   1.000  C
  H291     1.0000 0.08700  0.76270  0.61390  Biso   1.000  H
  C295     1.0000 0.06212  0.82949  0.63881  Biso   1.000  C
  H292     1.0000 0.05520  0.84330  0.60830  Biso   1.000  H
  C296     1.0000 0.03401  0.55950  0.56409  Biso   1.000  C
  C297     1.0000 0.05476  0.59767  0.59930  Biso   1.000  C
  C298     1.0000 0.10531  0.59799  0.61143  Biso   1.000  C
  H293     1.0000 0.12670  0.57350  0.59860  Biso   1.000  H
  C299     1.0000 0.12441  0.63440  0.64255  Biso   1.000  C
  H294     1.0000 0.15850  0.63410  0.65060  Biso   1.000  H
  C300     1.0000 0.09294  0.67157  0.66192  Biso   1.000  C
  C301     1.0000 0.04189  0.66965  0.65071  Biso   1.000  C
  H295     1.0000 0.02010  0.69310  0.66460  Biso   1.000  H
  C302     1.0000 0.02301  0.63385  0.61964  Biso   1.000  C
  H296     1.0000 0.98880  0.63370  0.61210  Biso   1.000  H
  C303     1.0000 0.15613  0.70417  0.72112  Biso   1.000  C
  C304     1.0000 0.19326  0.74065  0.72092  Biso   1.000  C
  H297     1.0000 0.19000  0.76900  0.70110  Biso   1.000  H
  C305     1.0000 0.98090  0.96160  0.82930  Biso   1.000  C
  H298     1.0000 0.96710  0.93440  0.81250  Biso   1.000  H
  C306     1.0000 0.98080  0.96050  0.87930  Biso   1.000  C
  O65      1.0000 0.01550  0.01150  0.95230  Biso   1.000  O
  N26      1.0000 0.96300  0.91820  0.95280  Biso   1.000  N
  C307     1.0000 0.95540  0.91700  0.90480  Biso   1.000  C
  H299     1.0000 0.93670  0.89230  0.88890  Biso   1.000  H
  C308     1.0000 0.94750  0.87010  0.97350  Biso   1.000  C
  H300     1.0000 0.91530  0.85850  0.96200  Biso   1.000  H
  H301     1.0000 0.97280  0.84700  0.96200  Biso   1.000  H
  C309     1.0000 0.03530  0.03610  0.52830  Biso   1.000  C
  H302     1.0000 0.06900  0.02810  0.54000  Biso   1.000  H
  H303     1.0000 0.03090  0.06780  0.53980  Biso   1.000  H
  H304     1.0000 0.91130  0.62690  0.52850  Biso   1.000  H
  H305     1.0000 0.84650  0.66950  0.47150  Biso   1.000  H
  H306     1.0000 0.84180  0.51470  0.47140  Biso   1.000  H
  H307     1.0000 0.77300  0.55730  0.52850  Biso   1.000  H
  C310     1.0000 0.86740  0.57570  0.45290  Biso   1.000  C
  H308     1.0000 0.89420  0.58940  0.43270  Biso   1.000  H
  H309     1.0000 0.85690  0.54390  0.43850  Biso   1.000  H
  C311     1.0000 0.82290  0.61210  0.45220  Biso   1.000  C
  H310     1.0000 0.79800  0.59920  0.42940  Biso   1.000  H
  H311     1.0000 0.83470  0.64420  0.43940  Biso   1.000  H
  H312     1.0000 0.02660  0.06950  0.54000  Biso   1.000  H
  C312     1.0000 0.99900  0.94950  0.52810  Biso   1.000  C
  N27      1.0000 0.88800  0.28927  0.69139  Biso   1.000  N
  O66      1.0000 0.97536  0.07054  0.63711  Biso   1.000  O
  O67      1.0000 0.97314  0.06814  0.71822  Biso   1.000  O
  O68      1.0000 0.01103  0.43501  0.55058  Biso   1.000  O
  O69      1.0000 0.93630  0.47477  0.55014  Biso   1.000  O
  C313     1.0000 0.96685  0.08951  0.67791  Biso   1.000  C
  C314     1.0000 0.94675  0.14240  0.68050  Biso   1.000  C
  C315     1.0000 0.93622  0.16356  0.72536  Biso   1.000  C
  H313     1.0000 0.94160  0.14490  0.75370  Biso   1.000  H
  C316     1.0000 0.91764  0.21233  0.72884  Biso   1.000  C
  H314     1.0000 0.91120  0.22640  0.75940  Biso   1.000  H
  C317     1.0000 0.90877  0.23980  0.68733  Biso   1.000  C
  C318     1.0000 0.91894  0.21878  0.64217  Biso   1.000  C
  H315     1.0000 0.91300  0.23730  0.61390  Biso   1.000  H
  C319     1.0000 0.93788  0.17051  0.63881  Biso   1.000  C
  H316     1.0000 0.94480  0.15670  0.60830  Biso   1.000  H
  C320     1.0000 0.96599  0.44050  0.56409  Biso   1.000  C
  C321     1.0000 0.94524  0.40233  0.59930  Biso   1.000  C
  C322     1.0000 0.89469  0.40201  0.61143  Biso   1.000  C
  H317     1.0000 0.87330  0.42650  0.59860  Biso   1.000  H
  C323     1.0000 0.87559  0.36560  0.64255  Biso   1.000  C
  H318     1.0000 0.84150  0.36590  0.65060  Biso   1.000  H
  C324     1.0000 0.90706  0.32843  0.66192  Biso   1.000  C
  C325     1.0000 0.95811  0.33035  0.65071  Biso   1.000  C
  H319     1.0000 0.97990  0.30690  0.66460  Biso   1.000  H
  C326     1.0000 0.97699  0.36615  0.61964  Biso   1.000  C
  H320     1.0000 0.01120  0.36630  0.61210  Biso   1.000  H
  C327     1.0000 0.84387  0.29583  0.72112  Biso   1.000  C
  C328     1.0000 0.80674  0.25935  0.72092  Biso   1.000  C
  H321     1.0000 0.81000  0.23100  0.70110  Biso   1.000  H
  C329     1.0000 0.01910  0.03840  0.82930  Biso   1.000  C
  H322     1.0000 0.03290  0.06560  0.81250  Biso   1.000  H
  C330     1.0000 0.01920  0.03950  0.87930  Biso   1.000  C
  O70      1.0000 0.98450  0.98850  0.95230  Biso   1.000  O
  N28      1.0000 0.03700  0.08180  0.95280  Biso   1.000  N
  C331     1.0000 0.04460  0.08300  0.90480  Biso   1.000  C
  H323     1.0000 0.06330  0.10770  0.88890  Biso   1.000  H
  C332     1.0000 0.05250  0.12990  0.97350  Biso   1.000  C
  H324     1.0000 0.08470  0.14150  0.96200  Biso   1.000  H
  H325     1.0000 0.02720  0.15300  0.96200  Biso   1.000  H
  C333     1.0000 0.96470  0.96390  0.52830  Biso   1.000  C
  H326     1.0000 0.93100  0.97190  0.54000  Biso   1.000  H
  H327     1.0000 0.96910  0.93220  0.53980  Biso   1.000  H
  H328     1.0000 0.08870  0.37310  0.52850  Biso   1.000  H
  H329     1.0000 0.15350  0.33050  0.47150  Biso   1.000  H
  H330     1.0000 0.15820  0.48530  0.47140  Biso   1.000  H
  H331     1.0000 0.22700  0.44270  0.52850  Biso   1.000  H
  C334     1.0000 0.13260  0.42430  0.45290  Biso   1.000  C
  H332     1.0000 0.10580  0.41060  0.43270  Biso   1.000  H
  H333     1.0000 0.14310  0.45610  0.43850  Biso   1.000  H
  C335     1.0000 0.17710  0.38790  0.45220  Biso   1.000  C
  H334     1.0000 0.20200  0.40080  0.42940  Biso   1.000  H
  H335     1.0000 0.16530  0.35580  0.43940  Biso   1.000  H
  H336     1.0000 0.97340  0.93050  0.54000  Biso   1.000  H
  C336     1.0000 0.00100  0.05050  0.52810  Biso   1.000  C
  N29      1.0000 0.71073  0.88800  0.69139  Biso   1.000  N
  O71      1.0000 0.92946  0.97536  0.63711  Biso   1.000  O
  O72      1.0000 0.93186  0.97314  0.71822  Biso   1.000  O
  O73      1.0000 0.56499  0.01103  0.55058  Biso   1.000  O
  O74      1.0000 0.52523  0.93630  0.55014  Biso   1.000  O
  C337     1.0000 0.91049  0.96685  0.67791  Biso   1.000  C
  C338     1.0000 0.85760  0.94675  0.68050  Biso   1.000  C
  C339     1.0000 0.83644  0.93622  0.72536  Biso   1.000  C
  H337     1.0000 0.85510  0.94160  0.75370  Biso   1.000  H
  C340     1.0000 0.78767  0.91764  0.72884  Biso   1.000  C
  H338     1.0000 0.77360  0.91120  0.75940  Biso   1.000  H
  C341     1.0000 0.76020  0.90877  0.68733  Biso   1.000  C
  C342     1.0000 0.78122  0.91894  0.64217  Biso   1.000  C
  H339     1.0000 0.76270  0.91300  0.61390  Biso   1.000  H
  C343     1.0000 0.82949  0.93788  0.63881  Biso   1.000  C
  H340     1.0000 0.84330  0.94480  0.60830  Biso   1.000  H
  C344     1.0000 0.55950  0.96599  0.56409  Biso   1.000  C
  C345     1.0000 0.59767  0.94524  0.59930  Biso   1.000  C
  C346     1.0000 0.59799  0.89469  0.61143  Biso   1.000  C
  H341     1.0000 0.57350  0.87330  0.59860  Biso   1.000  H
  C347     1.0000 0.63440  0.87559  0.64255  Biso   1.000  C
  H342     1.0000 0.63410  0.84150  0.65060  Biso   1.000  H
  C348     1.0000 0.67157  0.90706  0.66192  Biso   1.000  C
  C349     1.0000 0.66965  0.95811  0.65071  Biso   1.000  C
  H343     1.0000 0.69310  0.97990  0.66460  Biso   1.000  H
  C350     1.0000 0.63385  0.97699  0.61964  Biso   1.000  C
  H344     1.0000 0.63370  0.01120  0.61210  Biso   1.000  H
  C351     1.0000 0.70417  0.84387  0.72112  Biso   1.000  C
  C352     1.0000 0.74065  0.80674  0.72092  Biso   1.000  C
  H345     1.0000 0.76900  0.81000  0.70110  Biso   1.000  H
  C353     1.0000 0.96160  0.01910  0.82930  Biso   1.000  C
  H346     1.0000 0.93440  0.03290  0.81250  Biso   1.000  H
  C354     1.0000 0.96050  0.01920  0.87930  Biso   1.000  C
  O75      1.0000 0.01150  0.98450  0.95230  Biso   1.000  O
  N30      1.0000 0.91820  0.03700  0.95280  Biso   1.000  N
  C355     1.0000 0.91700  0.04460  0.90480  Biso   1.000  C
  H347     1.0000 0.89230  0.06330  0.88890  Biso   1.000  H
  C356     1.0000 0.87010  0.05250  0.97350  Biso   1.000  C
  H348     1.0000 0.85850  0.08470  0.96200  Biso   1.000  H
  H349     1.0000 0.84700  0.02720  0.96200  Biso   1.000  H
  C357     1.0000 0.03610  0.96470  0.52830  Biso   1.000  C
  H350     1.0000 0.02810  0.93100  0.54000  Biso   1.000  H
  H351     1.0000 0.06780  0.96910  0.53980  Biso   1.000  H
  H352     1.0000 0.62690  0.08870  0.52850  Biso   1.000  H
  H353     1.0000 0.66950  0.15350  0.47150  Biso   1.000  H
  H354     1.0000 0.51470  0.15820  0.47140  Biso   1.000  H
  H355     1.0000 0.55730  0.22700  0.52850  Biso   1.000  H
  C358     1.0000 0.57570  0.13260  0.45290  Biso   1.000  C
  H356     1.0000 0.58940  0.10580  0.43270  Biso   1.000  H
  H357     1.0000 0.54390  0.14310  0.43850  Biso   1.000  H
  C359     1.0000 0.61210  0.17710  0.45220  Biso   1.000  C
  H358     1.0000 0.59920  0.20200  0.42940  Biso   1.000  H
  H359     1.0000 0.64420  0.16530  0.43940  Biso   1.000  H
  H360     1.0000 0.06950  0.97340  0.54000  Biso   1.000  H
  C360     1.0000 0.94950  0.00100  0.52810  Biso   1.000  C
  N31      1.0000 0.28927  0.11200  0.69139  Biso   1.000  N
  O76      1.0000 0.07054  0.02464  0.63711  Biso   1.000  O
  O77      1.0000 0.06814  0.02686  0.71822  Biso   1.000  O
  O78      1.0000 0.43501  0.98897  0.55058  Biso   1.000  O
  O79      1.0000 0.47477  0.06370  0.55014  Biso   1.000  O
  C361     1.0000 0.08951  0.03315  0.67791  Biso   1.000  C
  C362     1.0000 0.14240  0.05325  0.68050  Biso   1.000  C
  C363     1.0000 0.16356  0.06378  0.72536  Biso   1.000  C
  H361     1.0000 0.14490  0.05840  0.75370  Biso   1.000  H
  C364     1.0000 0.21233  0.08236  0.72884  Biso   1.000  C
  H362     1.0000 0.22640  0.08880  0.75940  Biso   1.000  H
  C365     1.0000 0.23980  0.09123  0.68733  Biso   1.000  C
  C366     1.0000 0.21878  0.08106  0.64217  Biso   1.000  C
  H363     1.0000 0.23730  0.08700  0.61390  Biso   1.000  H
  C367     1.0000 0.17051  0.06212  0.63881  Biso   1.000  C
  H364     1.0000 0.15670  0.05520  0.60830  Biso   1.000  H
  C368     1.0000 0.44050  0.03401  0.56409  Biso   1.000  C
  C369     1.0000 0.40233  0.05476  0.59930  Biso   1.000  C
  C370     1.0000 0.40201  0.10531  0.61143  Biso   1.000  C
  H365     1.0000 0.42650  0.12670  0.59860  Biso   1.000  H
  C371     1.0000 0.36560  0.12441  0.64255  Biso   1.000  C
  H366     1.0000 0.36590  0.15850  0.65060  Biso   1.000  H
  C372     1.0000 0.32843  0.09294  0.66192  Biso   1.000  C
  C373     1.0000 0.33035  0.04189  0.65071  Biso   1.000  C
  H367     1.0000 0.30690  0.02010  0.66460  Biso   1.000  H
  C374     1.0000 0.36615  0.02301  0.61964  Biso   1.000  C
  H368     1.0000 0.36630  0.98880  0.61210  Biso   1.000  H
  C375     1.0000 0.29583  0.15613  0.72112  Biso   1.000  C
  C376     1.0000 0.25935  0.19326  0.72092  Biso   1.000  C
  H369     1.0000 0.23100  0.19000  0.70110  Biso   1.000  H
  C377     1.0000 0.03840  0.98090  0.82930  Biso   1.000  C
  H370     1.0000 0.06560  0.96710  0.81250  Biso   1.000  H
  C378     1.0000 0.03950  0.98080  0.87930  Biso   1.000  C
  O80      1.0000 0.98850  0.01550  0.95230  Biso   1.000  O
  N32      1.0000 0.08180  0.96300  0.95280  Biso   1.000  N
  C379     1.0000 0.08300  0.95540  0.90480  Biso   1.000  C
  H371     1.0000 0.10770  0.93670  0.88890  Biso   1.000  H
  C380     1.0000 0.12990  0.94750  0.97350  Biso   1.000  C
  H372     1.0000 0.14150  0.91530  0.96200  Biso   1.000  H
  H373     1.0000 0.15300  0.97280  0.96200  Biso   1.000  H
  C381     1.0000 0.96390  0.03530  0.52830  Biso   1.000  C
  H374     1.0000 0.97190  0.06900  0.54000  Biso   1.000  H
  H375     1.0000 0.93220  0.03090  0.53980  Biso   1.000  H
  H376     1.0000 0.37310  0.91130  0.52850  Biso   1.000  H
  H377     1.0000 0.33050  0.84650  0.47150  Biso   1.000  H
  H378     1.0000 0.48530  0.84180  0.47140  Biso   1.000  H
  H379     1.0000 0.44270  0.77300  0.52850  Biso   1.000  H
  C382     1.0000 0.42430  0.86740  0.45290  Biso   1.000  C
  H380     1.0000 0.41060  0.89420  0.43270  Biso   1.000  H
  H381     1.0000 0.45610  0.85690  0.43850  Biso   1.000  H
  C383     1.0000 0.38790  0.82290  0.45220  Biso   1.000  C
  H382     1.0000 0.40080  0.79800  0.42940  Biso   1.000  H
  H383     1.0000 0.35580  0.83470  0.43940  Biso   1.000  H
  H384     1.0000 0.93050  0.02660  0.54000  Biso   1.000  H
  C384     1.0000 0.05050  0.99900  0.52810  Biso   1.000  C
  Cu1      1.0000 0.50000  0.50000  0.12851  Biso   1.000  Cu
  Cu2      1.0000 0.50000  0.50000  0.22607  Biso   1.000  Cu
  N33      1.0000 0.50000  0.50000  0.30365  Biso   1.000  N
  N34      1.0000 0.50000  0.50000  0.04787  Biso   1.000  N
  C385     1.0000 0.50000  0.50000  0.40600  Biso   1.000  C
  Cu3      1.0000 0.00000  0.00000  0.37149  Biso   1.000  Cu
  Cu4      1.0000 0.00000  0.00000  0.27393  Biso   1.000  Cu
  N35      1.0000 0.00000  0.00000  0.19635  Biso   1.000  N
  N36      1.0000 0.00000  0.00000  0.45213  Biso   1.000  N
  C386     1.0000 0.00000  0.00000  0.09400  Biso   1.000  C
  Cu5      1.0000 0.50000  0.50000  0.87149  Biso   1.000  Cu
  Cu6      1.0000 0.50000  0.50000  0.77393  Biso   1.000  Cu
  N37      1.0000 0.50000  0.50000  0.69635  Biso   1.000  N
  N38      1.0000 0.50000  0.50000  0.95213  Biso   1.000  N
  C387     1.0000 0.50000  0.50000  0.59400  Biso   1.000  C
  Cu7      1.0000 0.00000  0.00000  0.62851  Biso   1.000  Cu
  Cu8      1.0000 0.00000  0.00000  0.72607  Biso   1.000  Cu
  N39      1.0000 0.00000  0.00000  0.80365  Biso   1.000  N
  N40      1.0000 0.00000  0.00000  0.54787  Biso   1.000  N
  C388     1.0000 0.00000  0.00000  0.90600  Biso   1.000  C
  Cu9      1.0000 0.45617  0.97601  0.00000  Biso   1.000  Cu
  N41      1.0000 0.38670  0.93374  0.00000  Biso   1.000  N
  N42      1.0000 0.29660  0.87780  0.00000  Biso   1.000  N
  C389     1.0000 0.39170  0.88250  0.00000  Biso   1.000  C
  C390     1.0000 0.34540  0.85230  0.00000  Biso   1.000  C
  C391     1.0000 0.34150  0.96370  0.00000  Biso   1.000  C
  C392     1.0000 0.29240  0.93290  0.00000  Biso   1.000  C
  Cu10     1.0000 0.54383  0.02399  0.00000  Biso   1.000  Cu
  N43      1.0000 0.61330  0.06626  0.00000  Biso   1.000  N
  N44      1.0000 0.70340  0.12220  0.00000  Biso   1.000  N
  C393     1.0000 0.60830  0.11750  0.00000  Biso   1.000  C
  C394     1.0000 0.65460  0.14770  0.00000  Biso   1.000  C
  C395     1.0000 0.65850  0.03630  0.00000  Biso   1.000  C
  C396     1.0000 0.70760  0.06710  0.00000  Biso   1.000  C
  Cu11     1.0000 0.02399  0.45617  0.00000  Biso   1.000  Cu
  N45      1.0000 0.06626  0.38670  0.00000  Biso   1.000  N
  N46      1.0000 0.12220  0.29660  0.00000  Biso   1.000  N
  C397     1.0000 0.11750  0.39170  0.00000  Biso   1.000  C
  C398     1.0000 0.14770  0.34540  0.00000  Biso   1.000  C
  C399     1.0000 0.03630  0.34150  0.00000  Biso   1.000  C
  C400     1.0000 0.06710  0.29240  0.00000  Biso   1.000  C
  Cu12     1.0000 0.97601  0.54383  0.00000  Biso   1.000  Cu
  N47      1.0000 0.93374  0.61330  0.00000  Biso   1.000  N
  N48      1.0000 0.87780  0.70340  0.00000  Biso   1.000  N
  C401     1.0000 0.88250  0.60830  0.00000  Biso   1.000  C
  C402     1.0000 0.85230  0.65460  0.00000  Biso   1.000  C
  C403     1.0000 0.96370  0.65850  0.00000  Biso   1.000  C
  C404     1.0000 0.93290  0.70760  0.00000  Biso   1.000  C
  Cu13     1.0000 0.04383  0.47601  0.50000  Biso   1.000  Cu
  N49      1.0000 0.11330  0.43374  0.50000  Biso   1.000  N
  N50      1.0000 0.20340  0.37780  0.50000  Biso   1.000  N
  C405     1.0000 0.10830  0.38250  0.50000  Biso   1.000  C
  C406     1.0000 0.15460  0.35230  0.50000  Biso   1.000  C
  C407     1.0000 0.15850  0.46370  0.50000  Biso   1.000  C
  C408     1.0000 0.20760  0.43290  0.50000  Biso   1.000  C
  Cu14     1.0000 0.95617  0.52399  0.50000  Biso   1.000  Cu
  N51      1.0000 0.88670  0.56626  0.50000  Biso   1.000  N
  N52      1.0000 0.79660  0.62220  0.50000  Biso   1.000  N
  C409     1.0000 0.89170  0.61750  0.50000  Biso   1.000  C
  C410     1.0000 0.84540  0.64770  0.50000  Biso   1.000  C
  C411     1.0000 0.84150  0.53630  0.50000  Biso   1.000  C
  C412     1.0000 0.79240  0.56710  0.50000  Biso   1.000  C
  Cu15     1.0000 0.47601  0.95617  0.50000  Biso   1.000  Cu
  N53      1.0000 0.43374  0.88670  0.50000  Biso   1.000  N
  N54      1.0000 0.37780  0.79660  0.50000  Biso   1.000  N
  C413     1.0000 0.38250  0.89170  0.50000  Biso   1.000  C
  C414     1.0000 0.35230  0.84540  0.50000  Biso   1.000  C
  C415     1.0000 0.46370  0.84150  0.50000  Biso   1.000  C
  C416     1.0000 0.43290  0.79240  0.50000  Biso   1.000  C
  Cu16     1.0000 0.52399  0.04383  0.50000  Biso   1.000  Cu
  N55      1.0000 0.56626  0.11330  0.50000  Biso   1.000  N
  N56      1.0000 0.62220  0.20340  0.50000  Biso   1.000  N
  C417     1.0000 0.61750  0.10830  0.50000  Biso   1.000  C
  C418     1.0000 0.64770  0.15460  0.50000  Biso   1.000  C
  C419     1.0000 0.53630  0.15850  0.50000  Biso   1.000  C
  C420     1.0000 0.56710  0.20760  0.50000  Biso   1.000  C
  C421     1.0000 0.73486  0.76514  0.25000  Biso   1.000  C
  H385     1.0000 0.75970  0.74030  0.25000  Biso   1.000  H
  C422     1.0000 0.66179  0.83821  0.25000  Biso   1.000  C
  H386     1.0000 0.63700  0.86300  0.25000  Biso   1.000  H
  C423     1.0000 0.26514  0.23486  0.25000  Biso   1.000  C
  H387     1.0000 0.24030  0.25970  0.25000  Biso   1.000  H
  C424     1.0000 0.33821  0.16179  0.25000  Biso   1.000  C
  H388     1.0000 0.36300  0.13700  0.25000  Biso   1.000  H
  C425     1.0000 0.23486  0.73486  0.25000  Biso   1.000  C
  H389     1.0000 0.25970  0.75970  0.25000  Biso   1.000  H
  C426     1.0000 0.16179  0.66179  0.25000  Biso   1.000  C
  H390     1.0000 0.13700  0.63700  0.25000  Biso   1.000  H
  C427     1.0000 0.76514  0.26514  0.25000  Biso   1.000  C
  H391     1.0000 0.74030  0.24030  0.25000  Biso   1.000  H
  C428     1.0000 0.83821  0.33821  0.25000  Biso   1.000  C
  H392     1.0000 0.86300  0.36300  0.25000  Biso   1.000  H
  C429     1.0000 0.26514  0.23486  0.75000  Biso   1.000  C
  H393     1.0000 0.24030  0.25970  0.75000  Biso   1.000  H
  C430     1.0000 0.33821  0.16179  0.75000  Biso   1.000  C
  H394     1.0000 0.36300  0.13700  0.75000  Biso   1.000  H
  C431     1.0000 0.73486  0.76514  0.75000  Biso   1.000  C
  H395     1.0000 0.75970  0.74030  0.75000  Biso   1.000  H
  C432     1.0000 0.66179  0.83821  0.75000  Biso   1.000  C
  H396     1.0000 0.63700  0.86300  0.75000  Biso   1.000  H
  C433     1.0000 0.76514  0.26514  0.75000  Biso   1.000  C
  H397     1.0000 0.74030  0.24030  0.75000  Biso   1.000  H
  C434     1.0000 0.83821  0.33821  0.75000  Biso   1.000  C
  H398     1.0000 0.86300  0.36300  0.75000  Biso   1.000  H
  C435     1.0000 0.23486  0.73486  0.75000  Biso   1.000  C
  H399     1.0000 0.25970  0.75970  0.75000  Biso   1.000  H
  C436     1.0000 0.16179  0.66179  0.75000  Biso   1.000  C
  H400     1.0000 0.13700  0.63700  0.75000  Biso   1.000  H
  Cu17     1.0000 0.48270  0.53240  0.50000  Biso   1.000  Cu
  Cu18     1.0000 0.51730  0.46760  0.50000  Biso   1.000  Cu
  Cu19     1.0000 0.46760  0.48270  0.50000  Biso   1.000  Cu
  Cu20     1.0000 0.53240  0.51730  0.50000  Biso   1.000  Cu
  Cu21     1.0000 0.01730  0.03240  0.00000  Biso   1.000  Cu
  Cu22     1.0000 0.98270  0.96760  0.00000  Biso   1.000  Cu
  Cu23     1.0000 0.03240  0.98270  0.00000  Biso   1.000  Cu
  Cu24     1.0000 0.96760  0.01730  0.00000  Biso   1.000  Cu
