data_image0
_cell_length_a       26.52
_cell_length_b       26.52
_cell_length_c       27.26
_cell_angle_alpha    90
_cell_angle_beta     90
_cell_angle_gamma    90

_symmetry_space_group_name_H-M    "P 1"
_symmetry_int_tables_number       1

loop_
  _symmetry_equiv_pos_as_xyz
  'x, y, z'

loop_
  _atom_site_label
  _atom_site_occupancy
  _atom_site_fract_x
  _atom_site_fract_y
  _atom_site_fract_z
  _atom_site_thermal_displace_type
  _atom_site_B_iso_or_equiv
  _atom_site_type_symbol
  N1       1.0000 0.61234  0.78923  0.19131  Biso   1.000  N
  O1       1.0000 0.52467  0.57047  0.13759  Biso   1.000  O
  O2       1.0000 0.52699  0.56805  0.21923  Biso   1.000  O
  O3       1.0000 0.48904  0.93491  0.05052  Biso   1.000  O
  O4       1.0000 0.56387  0.97485  0.05040  Biso   1.000  O
  C1       1.0000 0.53328  0.58923  0.17844  Biso   1.000  C
  C2       1.0000 0.55348  0.64218  0.18094  Biso   1.000  C
  C3       1.0000 0.56422  0.66362  0.22586  Biso   1.000  C
  H1       1.0000 0.55890  0.64520  0.25440  Biso   1.000  H
  C4       1.0000 0.58280  0.71240  0.22889  Biso   1.000  C
  H2       1.0000 0.58920  0.72670  0.25940  Biso   1.000  H
  C5       1.0000 0.59178  0.73955  0.18727  Biso   1.000  C
  C6       1.0000 0.58137  0.71844  0.14223  Biso   1.000  C
  H3       1.0000 0.58720  0.73690  0.11380  Biso   1.000  H
  C7       1.0000 0.56228  0.66989  0.13899  Biso   1.000  C
  H4       1.0000 0.55540  0.65600  0.10840  Biso   1.000  H
  C8       1.0000 0.53371  0.94044  0.06383  Biso   1.000  C
  C9       1.0000 0.55474  0.90242  0.09936  Biso   1.000  C
  C10      1.0000 0.60553  0.90177  0.11149  Biso   1.000  C
  H5       1.0000 0.62690  0.92620  0.09860  Biso   1.000  H
  C11      1.0000 0.62463  0.86541  0.14231  Biso   1.000  C
  H6       1.0000 0.65880  0.86560  0.15000  Biso   1.000  H
  C12      1.0000 0.59329  0.82809  0.16227  Biso   1.000  C
  C13      1.0000 0.54205  0.82992  0.15073  Biso   1.000  C
  H7       1.0000 0.52030  0.80640  0.16450  Biso   1.000  H
  C14      1.0000 0.52318  0.86569  0.11952  Biso   1.000  C
  H8       1.0000 0.48910  0.86550  0.11170  Biso   1.000  H
  C15      1.0000 0.65656  0.79535  0.22117  Biso   1.000  C
  C16      1.0000 0.69304  0.75923  0.22146  Biso   1.000  C
  H9       1.0000 0.68930  0.73060  0.20210  Biso   1.000  H
  C17      1.0000 0.48190  0.53800  0.33190  Biso   1.000  C
  H10      1.0000 0.46920  0.56560  0.31480  Biso   1.000  H
  N2       1.0000 0.45740  0.58380  0.45240  Biso   1.000  N
  C18      1.0000 0.45670  0.58600  0.40520  Biso   1.000  C
  H11      1.0000 0.44320  0.61300  0.38780  Biso   1.000  H
  C19      1.0000 0.48020  0.54010  0.38060  Biso   1.000  C
  O5       1.0000 0.51710  0.49810  0.45420  Biso   1.000  O
  C20      1.0000 0.44260  0.63250  0.47320  Biso   1.000  C
  H12      1.0000 0.46570  0.65830  0.46160  Biso   1.000  H
  H13      1.0000 0.40910  0.64110  0.46160  Biso   1.000  H
  C21      1.0000 0.53330  0.46110  0.02850  Biso   1.000  C
  H14      1.0000 0.52230  0.42840  0.04040  Biso   1.000  H
  C22      1.0000 0.36700  0.92680  0.95010  Biso   1.000  C
  H15      1.0000 0.39300  0.91170  0.92990  Biso   1.000  H
  H16      1.0000 0.35860  0.95950  0.93620  Biso   1.000  H
  C23      1.0000 0.31900  0.89230  0.94960  Biso   1.000  C
  H17      1.0000 0.29290  0.90850  0.93030  Biso   1.000  H
  H18      1.0000 0.32730  0.86060  0.93390  Biso   1.000  H
  H19      1.0000 0.34360  0.98570  0.97130  Biso   1.000  H
  H20      1.0000 0.27290  0.94530  0.02880  Biso   1.000  H
  H21      1.0000 0.41100  0.87180  0.02870  Biso   1.000  H
  H22      1.0000 0.34290  0.83040  0.97130  Biso   1.000  H
  C24      1.0000 0.50320  0.55120  0.02840  Biso   1.000  C
  H23      1.0000 0.47470  0.57070  0.04020  Biso   1.000  H
  H24      1.0000 0.56730  0.46690  0.04040  Biso   1.000  H
  N3       1.0000 0.38766  0.21077  0.19131  Biso   1.000  N
  O6       1.0000 0.47533  0.42953  0.13759  Biso   1.000  O
  O7       1.0000 0.47301  0.43195  0.21923  Biso   1.000  O
  O8       1.0000 0.51096  0.06509  0.05052  Biso   1.000  O
  O9       1.0000 0.43613  0.02515  0.05040  Biso   1.000  O
  C25      1.0000 0.46672  0.41077  0.17844  Biso   1.000  C
  C26      1.0000 0.44652  0.35782  0.18094  Biso   1.000  C
  C27      1.0000 0.43578  0.33638  0.22586  Biso   1.000  C
  H25      1.0000 0.44110  0.35480  0.25440  Biso   1.000  H
  C28      1.0000 0.41720  0.28760  0.22889  Biso   1.000  C
  H26      1.0000 0.41080  0.27330  0.25940  Biso   1.000  H
  C29      1.0000 0.40822  0.26045  0.18727  Biso   1.000  C
  C30      1.0000 0.41863  0.28156  0.14223  Biso   1.000  C
  H27      1.0000 0.41280  0.26310  0.11380  Biso   1.000  H
  C31      1.0000 0.43772  0.33011  0.13899  Biso   1.000  C
  H28      1.0000 0.44460  0.34400  0.10840  Biso   1.000  H
  C32      1.0000 0.46629  0.05956  0.06383  Biso   1.000  C
  C33      1.0000 0.44526  0.09758  0.09936  Biso   1.000  C
  C34      1.0000 0.39447  0.09823  0.11149  Biso   1.000  C
  H29      1.0000 0.37310  0.07380  0.09860  Biso   1.000  H
  C35      1.0000 0.37537  0.13459  0.14231  Biso   1.000  C
  H30      1.0000 0.34120  0.13440  0.15000  Biso   1.000  H
  C36      1.0000 0.40671  0.17191  0.16227  Biso   1.000  C
  C37      1.0000 0.45795  0.17008  0.15073  Biso   1.000  C
  H31      1.0000 0.47970  0.19360  0.16450  Biso   1.000  H
  C38      1.0000 0.47682  0.13431  0.11952  Biso   1.000  C
  H32      1.0000 0.51090  0.13450  0.11170  Biso   1.000  H
  C39      1.0000 0.34344  0.20465  0.22117  Biso   1.000  C
  C40      1.0000 0.30696  0.24077  0.22146  Biso   1.000  C
  H33      1.0000 0.31070  0.26940  0.20210  Biso   1.000  H
  C41      1.0000 0.51810  0.46200  0.33190  Biso   1.000  C
  H34      1.0000 0.53080  0.43440  0.31480  Biso   1.000  H
  N4       1.0000 0.54260  0.41620  0.45240  Biso   1.000  N
  C42      1.0000 0.54330  0.41400  0.40520  Biso   1.000  C
  H35      1.0000 0.55680  0.38700  0.38780  Biso   1.000  H
  C43      1.0000 0.51980  0.45990  0.38060  Biso   1.000  C
  O10      1.0000 0.48290  0.50190  0.45420  Biso   1.000  O
  C44      1.0000 0.55740  0.36750  0.47320  Biso   1.000  C
  H36      1.0000 0.53430  0.34170  0.46160  Biso   1.000  H
  H37      1.0000 0.59090  0.35890  0.46160  Biso   1.000  H
  C45      1.0000 0.46670  0.53890  0.02850  Biso   1.000  C
  H38      1.0000 0.47770  0.57160  0.04040  Biso   1.000  H
  C46      1.0000 0.63300  0.07320  0.95010  Biso   1.000  C
  H39      1.0000 0.60700  0.08830  0.92990  Biso   1.000  H
  H40      1.0000 0.64140  0.04050  0.93620  Biso   1.000  H
  C47      1.0000 0.68100  0.10770  0.94960  Biso   1.000  C
  H41      1.0000 0.70710  0.09150  0.93030  Biso   1.000  H
  H42      1.0000 0.67270  0.13940  0.93390  Biso   1.000  H
  H43      1.0000 0.65640  0.01430  0.97130  Biso   1.000  H
  H44      1.0000 0.72710  0.05470  0.02880  Biso   1.000  H
  H45      1.0000 0.58900  0.12820  0.02870  Biso   1.000  H
  H46      1.0000 0.65710  0.16960  0.97130  Biso   1.000  H
  C48      1.0000 0.49680  0.44880  0.02840  Biso   1.000  C
  H47      1.0000 0.52530  0.42930  0.04020  Biso   1.000  H
  H48      1.0000 0.43270  0.53310  0.04040  Biso   1.000  H
  N5       1.0000 0.21077  0.61234  0.19131  Biso   1.000  N
  O11      1.0000 0.42953  0.52467  0.13759  Biso   1.000  O
  O12      1.0000 0.43195  0.52699  0.21923  Biso   1.000  O
  O13      1.0000 0.06509  0.48904  0.05052  Biso   1.000  O
  O14      1.0000 0.02515  0.56387  0.05040  Biso   1.000  O
  C49      1.0000 0.41077  0.53328  0.17844  Biso   1.000  C
  C50      1.0000 0.35782  0.55348  0.18094  Biso   1.000  C
  C51      1.0000 0.33638  0.56422  0.22586  Biso   1.000  C
  H49      1.0000 0.35480  0.55890  0.25440  Biso   1.000  H
  C52      1.0000 0.28760  0.58280  0.22889  Biso   1.000  C
  H50      1.0000 0.27330  0.58920  0.25940  Biso   1.000  H
  C53      1.0000 0.26045  0.59178  0.18727  Biso   1.000  C
  C54      1.0000 0.28156  0.58137  0.14223  Biso   1.000  C
  H51      1.0000 0.26310  0.58720  0.11380  Biso   1.000  H
  C55      1.0000 0.33011  0.56228  0.13899  Biso   1.000  C
  H52      1.0000 0.34400  0.55540  0.10840  Biso   1.000  H
  C56      1.0000 0.05956  0.53371  0.06383  Biso   1.000  C
  C57      1.0000 0.09758  0.55474  0.09936  Biso   1.000  C
  C58      1.0000 0.09823  0.60553  0.11149  Biso   1.000  C
  H53      1.0000 0.07380  0.62690  0.09860  Biso   1.000  H
  C59      1.0000 0.13459  0.62463  0.14231  Biso   1.000  C
  H54      1.0000 0.13440  0.65880  0.15000  Biso   1.000  H
  C60      1.0000 0.17191  0.59329  0.16227  Biso   1.000  C
  C61      1.0000 0.17008  0.54205  0.15073  Biso   1.000  C
  H55      1.0000 0.19360  0.52030  0.16450  Biso   1.000  H
  C62      1.0000 0.13431  0.52318  0.11952  Biso   1.000  C
  H56      1.0000 0.13450  0.48910  0.11170  Biso   1.000  H
  C63      1.0000 0.20465  0.65656  0.22117  Biso   1.000  C
  C64      1.0000 0.24077  0.69304  0.22146  Biso   1.000  C
  H57      1.0000 0.26940  0.68930  0.20210  Biso   1.000  H
  C65      1.0000 0.46200  0.48190  0.33190  Biso   1.000  C
  H58      1.0000 0.43440  0.46920  0.31480  Biso   1.000  H
  N6       1.0000 0.41620  0.45740  0.45240  Biso   1.000  N
  C66      1.0000 0.41400  0.45670  0.40520  Biso   1.000  C
  H59      1.0000 0.38700  0.44320  0.38780  Biso   1.000  H
  C67      1.0000 0.45990  0.48020  0.38060  Biso   1.000  C
  O15      1.0000 0.50190  0.51710  0.45420  Biso   1.000  O
  C68      1.0000 0.36750  0.44260  0.47320  Biso   1.000  C
  H60      1.0000 0.34170  0.46570  0.46160  Biso   1.000  H
  H61      1.0000 0.35890  0.40910  0.46160  Biso   1.000  H
  C69      1.0000 0.53890  0.53330  0.02850  Biso   1.000  C
  H62      1.0000 0.57160  0.52230  0.04040  Biso   1.000  H
  C70      1.0000 0.07320  0.36700  0.95010  Biso   1.000  C
  H63      1.0000 0.08830  0.39300  0.92990  Biso   1.000  H
  H64      1.0000 0.04050  0.35860  0.93620  Biso   1.000  H
  C71      1.0000 0.10770  0.31900  0.94960  Biso   1.000  C
  H65      1.0000 0.09150  0.29290  0.93030  Biso   1.000  H
  H66      1.0000 0.13940  0.32730  0.93390  Biso   1.000  H
  H67      1.0000 0.01430  0.34360  0.97130  Biso   1.000  H
  H68      1.0000 0.05470  0.27290  0.02880  Biso   1.000  H
  H69      1.0000 0.12820  0.41100  0.02870  Biso   1.000  H
  H70      1.0000 0.16960  0.34290  0.97130  Biso   1.000  H
  C72      1.0000 0.44880  0.50320  0.02840  Biso   1.000  C
  H71      1.0000 0.42930  0.47470  0.04020  Biso   1.000  H
  H72      1.0000 0.53310  0.56730  0.04040  Biso   1.000  H
  N7       1.0000 0.78923  0.38766  0.19131  Biso   1.000  N
  O16      1.0000 0.57047  0.47533  0.13759  Biso   1.000  O
  O17      1.0000 0.56805  0.47301  0.21923  Biso   1.000  O
  O18      1.0000 0.93491  0.51096  0.05052  Biso   1.000  O
  O19      1.0000 0.97485  0.43613  0.05040  Biso   1.000  O
  C73      1.0000 0.58923  0.46672  0.17844  Biso   1.000  C
  C74      1.0000 0.64218  0.44652  0.18094  Biso   1.000  C
  C75      1.0000 0.66362  0.43578  0.22586  Biso   1.000  C
  H73      1.0000 0.64520  0.44110  0.25440  Biso   1.000  H
  C76      1.0000 0.71240  0.41720  0.22889  Biso   1.000  C
  H74      1.0000 0.72670  0.41080  0.25940  Biso   1.000  H
  C77      1.0000 0.73955  0.40822  0.18727  Biso   1.000  C
  C78      1.0000 0.71844  0.41863  0.14223  Biso   1.000  C
  H75      1.0000 0.73690  0.41280  0.11380  Biso   1.000  H
  C79      1.0000 0.66989  0.43772  0.13899  Biso   1.000  C
  H76      1.0000 0.65600  0.44460  0.10840  Biso   1.000  H
  C80      1.0000 0.94044  0.46629  0.06383  Biso   1.000  C
  C81      1.0000 0.90242  0.44526  0.09936  Biso   1.000  C
  C82      1.0000 0.90177  0.39447  0.11149  Biso   1.000  C
  H77      1.0000 0.92620  0.37310  0.09860  Biso   1.000  H
  C83      1.0000 0.86541  0.37537  0.14231  Biso   1.000  C
  H78      1.0000 0.86560  0.34120  0.15000  Biso   1.000  H
  C84      1.0000 0.82809  0.40671  0.16227  Biso   1.000  C
  C85      1.0000 0.82992  0.45795  0.15073  Biso   1.000  C
  H79      1.0000 0.80640  0.47970  0.16450  Biso   1.000  H
  C86      1.0000 0.86569  0.47682  0.11952  Biso   1.000  C
  H80      1.0000 0.86550  0.51090  0.11170  Biso   1.000  H
  C87      1.0000 0.79535  0.34344  0.22117  Biso   1.000  C
  C88      1.0000 0.75923  0.30696  0.22146  Biso   1.000  C
  H81      1.0000 0.73060  0.31070  0.20210  Biso   1.000  H
  C89      1.0000 0.53800  0.51810  0.33190  Biso   1.000  C
  H82      1.0000 0.56560  0.53080  0.31480  Biso   1.000  H
  N8       1.0000 0.58380  0.54260  0.45240  Biso   1.000  N
  C90      1.0000 0.58600  0.54330  0.40520  Biso   1.000  C
  H83      1.0000 0.61300  0.55680  0.38780  Biso   1.000  H
  C91      1.0000 0.54010  0.51980  0.38060  Biso   1.000  C
  O20      1.0000 0.49810  0.48290  0.45420  Biso   1.000  O
  C92      1.0000 0.63250  0.55740  0.47320  Biso   1.000  C
  H84      1.0000 0.65830  0.53430  0.46160  Biso   1.000  H
  H85      1.0000 0.64110  0.59090  0.46160  Biso   1.000  H
  C93      1.0000 0.46110  0.46670  0.02850  Biso   1.000  C
  H86      1.0000 0.42840  0.47770  0.04040  Biso   1.000  H
  C94      1.0000 0.92680  0.63300  0.95010  Biso   1.000  C
  H87      1.0000 0.91170  0.60700  0.92990  Biso   1.000  H
  H88      1.0000 0.95950  0.64140  0.93620  Biso   1.000  H
  C95      1.0000 0.89230  0.68100  0.94960  Biso   1.000  C
  H89      1.0000 0.90850  0.70710  0.93030  Biso   1.000  H
  H90      1.0000 0.86060  0.67270  0.93390  Biso   1.000  H
  H91      1.0000 0.98570  0.65640  0.97130  Biso   1.000  H
  H92      1.0000 0.94530  0.72710  0.02880  Biso   1.000  H
  H93      1.0000 0.87180  0.58900  0.02870  Biso   1.000  H
  H94      1.0000 0.83040  0.65710  0.97130  Biso   1.000  H
  C96      1.0000 0.55120  0.49680  0.02840  Biso   1.000  C
  H95      1.0000 0.57070  0.52530  0.04020  Biso   1.000  H
  H96      1.0000 0.46690  0.43270  0.04040  Biso   1.000  H
  N9       1.0000 0.88766  0.28923  0.30869  Biso   1.000  N
  O21      1.0000 0.97533  0.07047  0.36241  Biso   1.000  O
  O22      1.0000 0.97301  0.06805  0.28077  Biso   1.000  O
  O23      1.0000 0.01096  0.43491  0.44948  Biso   1.000  O
  O24      1.0000 0.93613  0.47485  0.44960  Biso   1.000  O
  C97      1.0000 0.96672  0.08923  0.32156  Biso   1.000  C
  C98      1.0000 0.94652  0.14218  0.31906  Biso   1.000  C
  C99      1.0000 0.93578  0.16362  0.27414  Biso   1.000  C
  H97      1.0000 0.94110  0.14520  0.24560  Biso   1.000  H
  C100     1.0000 0.91720  0.21240  0.27111  Biso   1.000  C
  H98      1.0000 0.91080  0.22670  0.24060  Biso   1.000  H
  C101     1.0000 0.90822  0.23955  0.31273  Biso   1.000  C
  C102     1.0000 0.91863  0.21844  0.35777  Biso   1.000  C
  H99      1.0000 0.91280  0.23690  0.38620  Biso   1.000  H
  C103     1.0000 0.93772  0.16989  0.36101  Biso   1.000  C
  H100     1.0000 0.94460  0.15600  0.39160  Biso   1.000  H
  C104     1.0000 0.96629  0.44044  0.43617  Biso   1.000  C
  C105     1.0000 0.94526  0.40242  0.40064  Biso   1.000  C
  C106     1.0000 0.89447  0.40177  0.38851  Biso   1.000  C
  H101     1.0000 0.87310  0.42620  0.40140  Biso   1.000  H
  C107     1.0000 0.87537  0.36541  0.35769  Biso   1.000  C
  H102     1.0000 0.84120  0.36560  0.35000  Biso   1.000  H
  C108     1.0000 0.90671  0.32809  0.33773  Biso   1.000  C
  C109     1.0000 0.95795  0.32992  0.34927  Biso   1.000  C
  H103     1.0000 0.97970  0.30640  0.33550  Biso   1.000  H
  C110     1.0000 0.97682  0.36569  0.38048  Biso   1.000  C
  H104     1.0000 0.01090  0.36550  0.38830  Biso   1.000  H
  C111     1.0000 0.84344  0.29535  0.27883  Biso   1.000  C
  C112     1.0000 0.80696  0.25923  0.27854  Biso   1.000  C
  H105     1.0000 0.81070  0.23060  0.29790  Biso   1.000  H
  C113     1.0000 0.01810  0.03800  0.16810  Biso   1.000  C
  H106     1.0000 0.03080  0.06560  0.18520  Biso   1.000  H
  N10      1.0000 0.04260  0.08380  0.04760  Biso   1.000  N
  C114     1.0000 0.04330  0.08600  0.09480  Biso   1.000  C
  H107     1.0000 0.05680  0.11300  0.11220  Biso   1.000  H
  C115     1.0000 0.01980  0.04010  0.11940  Biso   1.000  C
  O25      1.0000 0.98290  0.99810  0.04580  Biso   1.000  O
  C116     1.0000 0.05740  0.13250  0.02680  Biso   1.000  C
  H108     1.0000 0.03430  0.15830  0.03840  Biso   1.000  H
  H109     1.0000 0.09090  0.14110  0.03840  Biso   1.000  H
  C117     1.0000 0.96670  0.96110  0.47150  Biso   1.000  C
  H110     1.0000 0.97770  0.92840  0.45960  Biso   1.000  H
  C118     1.0000 0.13300  0.42680  0.54990  Biso   1.000  C
  H111     1.0000 0.10700  0.41170  0.57010  Biso   1.000  H
  H112     1.0000 0.14140  0.45950  0.56380  Biso   1.000  H
  C119     1.0000 0.18100  0.39230  0.55040  Biso   1.000  C
  H113     1.0000 0.20710  0.40850  0.56970  Biso   1.000  H
  H114     1.0000 0.17270  0.36060  0.56610  Biso   1.000  H
  H115     1.0000 0.15640  0.48570  0.52870  Biso   1.000  H
  H116     1.0000 0.22710  0.44530  0.47120  Biso   1.000  H
  H117     1.0000 0.08900  0.37180  0.47130  Biso   1.000  H
  H118     1.0000 0.15710  0.33040  0.52870  Biso   1.000  H
  C120     1.0000 0.99680  0.05120  0.47160  Biso   1.000  C
  H119     1.0000 0.02530  0.07070  0.45980  Biso   1.000  H
  H120     1.0000 0.93270  0.96690  0.45960  Biso   1.000  H
  N11      1.0000 0.11234  0.71077  0.30869  Biso   1.000  N
  O26      1.0000 0.02467  0.92953  0.36241  Biso   1.000  O
  O27      1.0000 0.02699  0.93195  0.28077  Biso   1.000  O
  O28      1.0000 0.98904  0.56509  0.44948  Biso   1.000  O
  O29      1.0000 0.06387  0.52515  0.44960  Biso   1.000  O
  C121     1.0000 0.03328  0.91077  0.32156  Biso   1.000  C
  C122     1.0000 0.05348  0.85782  0.31906  Biso   1.000  C
  C123     1.0000 0.06422  0.83638  0.27414  Biso   1.000  C
  H121     1.0000 0.05890  0.85480  0.24560  Biso   1.000  H
  C124     1.0000 0.08280  0.78760  0.27111  Biso   1.000  C
  H122     1.0000 0.08920  0.77330  0.24060  Biso   1.000  H
  C125     1.0000 0.09178  0.76045  0.31273  Biso   1.000  C
  C126     1.0000 0.08137  0.78156  0.35777  Biso   1.000  C
  H123     1.0000 0.08720  0.76310  0.38620  Biso   1.000  H
  C127     1.0000 0.06228  0.83011  0.36101  Biso   1.000  C
  H124     1.0000 0.05540  0.84400  0.39160  Biso   1.000  H
  C128     1.0000 0.03371  0.55956  0.43617  Biso   1.000  C
  C129     1.0000 0.05474  0.59758  0.40064  Biso   1.000  C
  C130     1.0000 0.10553  0.59823  0.38851  Biso   1.000  C
  H125     1.0000 0.12690  0.57380  0.40140  Biso   1.000  H
  C131     1.0000 0.12463  0.63459  0.35769  Biso   1.000  C
  H126     1.0000 0.15880  0.63440  0.35000  Biso   1.000  H
  C132     1.0000 0.09329  0.67191  0.33773  Biso   1.000  C
  C133     1.0000 0.04205  0.67008  0.34927  Biso   1.000  C
  H127     1.0000 0.02030  0.69360  0.33550  Biso   1.000  H
  C134     1.0000 0.02318  0.63431  0.38048  Biso   1.000  C
  H128     1.0000 0.98910  0.63450  0.38830  Biso   1.000  H
  C135     1.0000 0.15656  0.70465  0.27883  Biso   1.000  C
  C136     1.0000 0.19304  0.74077  0.27854  Biso   1.000  C
  H129     1.0000 0.18930  0.76940  0.29790  Biso   1.000  H
  C137     1.0000 0.98190  0.96200  0.16810  Biso   1.000  C
  H130     1.0000 0.96920  0.93440  0.18520  Biso   1.000  H
  N12      1.0000 0.95740  0.91620  0.04760  Biso   1.000  N
  C138     1.0000 0.95670  0.91400  0.09480  Biso   1.000  C
  H131     1.0000 0.94320  0.88700  0.11220  Biso   1.000  H
  C139     1.0000 0.98020  0.95990  0.11940  Biso   1.000  C
  O30      1.0000 0.01710  0.00190  0.04580  Biso   1.000  O
  C140     1.0000 0.94260  0.86750  0.02680  Biso   1.000  C
  H132     1.0000 0.96570  0.84170  0.03840  Biso   1.000  H
  H133     1.0000 0.90910  0.85890  0.03840  Biso   1.000  H
  C141     1.0000 0.03330  0.03890  0.47150  Biso   1.000  C
  H134     1.0000 0.02230  0.07160  0.45960  Biso   1.000  H
  C142     1.0000 0.86700  0.57320  0.54990  Biso   1.000  C
  H135     1.0000 0.89300  0.58830  0.57010  Biso   1.000  H
  H136     1.0000 0.85860  0.54050  0.56380  Biso   1.000  H
  C143     1.0000 0.81900  0.60770  0.55040  Biso   1.000  C
  H137     1.0000 0.79290  0.59150  0.56970  Biso   1.000  H
  H138     1.0000 0.82730  0.63940  0.56610  Biso   1.000  H
  H139     1.0000 0.84360  0.51430  0.52870  Biso   1.000  H
  H140     1.0000 0.77290  0.55470  0.47120  Biso   1.000  H
  H141     1.0000 0.91100  0.62820  0.47130  Biso   1.000  H
  H142     1.0000 0.84290  0.66960  0.52870  Biso   1.000  H
  C144     1.0000 0.00320  0.94880  0.47160  Biso   1.000  C
  H143     1.0000 0.97470  0.92930  0.45980  Biso   1.000  H
  H144     1.0000 0.06730  0.03310  0.45960  Biso   1.000  H
  N13      1.0000 0.28923  0.11234  0.30869  Biso   1.000  N
  O31      1.0000 0.07047  0.02467  0.36241  Biso   1.000  O
  O32      1.0000 0.06805  0.02699  0.28077  Biso   1.000  O
  O33      1.0000 0.43491  0.98904  0.44948  Biso   1.000  O
  O34      1.0000 0.47485  0.06387  0.44960  Biso   1.000  O
  C145     1.0000 0.08923  0.03328  0.32156  Biso   1.000  C
  C146     1.0000 0.14218  0.05348  0.31906  Biso   1.000  C
  C147     1.0000 0.16362  0.06422  0.27414  Biso   1.000  C
  H145     1.0000 0.14520  0.05890  0.24560  Biso   1.000  H
  C148     1.0000 0.21240  0.08280  0.27111  Biso   1.000  C
  H146     1.0000 0.22670  0.08920  0.24060  Biso   1.000  H
  C149     1.0000 0.23955  0.09178  0.31273  Biso   1.000  C
  C150     1.0000 0.21844  0.08137  0.35777  Biso   1.000  C
  H147     1.0000 0.23690  0.08720  0.38620  Biso   1.000  H
  C151     1.0000 0.16989  0.06228  0.36101  Biso   1.000  C
  H148     1.0000 0.15600  0.05540  0.39160  Biso   1.000  H
  C152     1.0000 0.44044  0.03371  0.43617  Biso   1.000  C
  C153     1.0000 0.40242  0.05474  0.40064  Biso   1.000  C
  C154     1.0000 0.40177  0.10553  0.38851  Biso   1.000  C
  H149     1.0000 0.42620  0.12690  0.40140  Biso   1.000  H
  C155     1.0000 0.36541  0.12463  0.35769  Biso   1.000  C
  H150     1.0000 0.36560  0.15880  0.35000  Biso   1.000  H
  C156     1.0000 0.32809  0.09329  0.33773  Biso   1.000  C
  C157     1.0000 0.32992  0.04205  0.34927  Biso   1.000  C
  H151     1.0000 0.30640  0.02030  0.33550  Biso   1.000  H
  C158     1.0000 0.36569  0.02318  0.38048  Biso   1.000  C
  H152     1.0000 0.36550  0.98910  0.38830  Biso   1.000  H
  C159     1.0000 0.29535  0.15656  0.27883  Biso   1.000  C
  C160     1.0000 0.25923  0.19304  0.27854  Biso   1.000  C
  H153     1.0000 0.23060  0.18930  0.29790  Biso   1.000  H
  C161     1.0000 0.03800  0.98190  0.16810  Biso   1.000  C
  H154     1.0000 0.06560  0.96920  0.18520  Biso   1.000  H
  N14      1.0000 0.08380  0.95740  0.04760  Biso   1.000  N
  C162     1.0000 0.08600  0.95670  0.09480  Biso   1.000  C
  H155     1.0000 0.11300  0.94320  0.11220  Biso   1.000  H
  C163     1.0000 0.04010  0.98020  0.11940  Biso   1.000  C
  O35      1.0000 0.99810  0.01710  0.04580  Biso   1.000  O
  C164     1.0000 0.13250  0.94260  0.02680  Biso   1.000  C
  H156     1.0000 0.15830  0.96570  0.03840  Biso   1.000  H
  H157     1.0000 0.14110  0.90910  0.03840  Biso   1.000  H
  C165     1.0000 0.96110  0.03330  0.47150  Biso   1.000  C
  H158     1.0000 0.92840  0.02230  0.45960  Biso   1.000  H
  C166     1.0000 0.42680  0.86700  0.54990  Biso   1.000  C
  H159     1.0000 0.41170  0.89300  0.57010  Biso   1.000  H
  H160     1.0000 0.45950  0.85860  0.56380  Biso   1.000  H
  C167     1.0000 0.39230  0.81900  0.55040  Biso   1.000  C
  H161     1.0000 0.40850  0.79290  0.56970  Biso   1.000  H
  H162     1.0000 0.36060  0.82730  0.56610  Biso   1.000  H
  H163     1.0000 0.48570  0.84360  0.52870  Biso   1.000  H
  H164     1.0000 0.44530  0.77290  0.47120  Biso   1.000  H
  H165     1.0000 0.37180  0.91100  0.47130  Biso   1.000  H
  H166     1.0000 0.33040  0.84290  0.52870  Biso   1.000  H
  C168     1.0000 0.05120  0.00320  0.47160  Biso   1.000  C
  H167     1.0000 0.07070  0.97470  0.45980  Biso   1.000  H
  H168     1.0000 0.96690  0.06730  0.45960  Biso   1.000  H
  N15      1.0000 0.71077  0.88766  0.30869  Biso   1.000  N
  O36      1.0000 0.92953  0.97533  0.36241  Biso   1.000  O
  O37      1.0000 0.93195  0.97301  0.28077  Biso   1.000  O
  O38      1.0000 0.56509  0.01096  0.44948  Biso   1.000  O
  O39      1.0000 0.52515  0.93613  0.44960  Biso   1.000  O
  C169     1.0000 0.91077  0.96672  0.32156  Biso   1.000  C
  C170     1.0000 0.85782  0.94652  0.31906  Biso   1.000  C
  C171     1.0000 0.83638  0.93578  0.27414  Biso   1.000  C
  H169     1.0000 0.85480  0.94110  0.24560  Biso   1.000  H
  C172     1.0000 0.78760  0.91720  0.27111  Biso   1.000  C
  H170     1.0000 0.77330  0.91080  0.24060  Biso   1.000  H
  C173     1.0000 0.76045  0.90822  0.31273  Biso   1.000  C
  C174     1.0000 0.78156  0.91863  0.35777  Biso   1.000  C
  H171     1.0000 0.76310  0.91280  0.38620  Biso   1.000  H
  C175     1.0000 0.83011  0.93772  0.36101  Biso   1.000  C
  H172     1.0000 0.84400  0.94460  0.39160  Biso   1.000  H
  C176     1.0000 0.55956  0.96629  0.43617  Biso   1.000  C
  C177     1.0000 0.59758  0.94526  0.40064  Biso   1.000  C
  C178     1.0000 0.59823  0.89447  0.38851  Biso   1.000  C
  H173     1.0000 0.57380  0.87310  0.40140  Biso   1.000  H
  C179     1.0000 0.63459  0.87537  0.35769  Biso   1.000  C
  H174     1.0000 0.63440  0.84120  0.35000  Biso   1.000  H
  C180     1.0000 0.67191  0.90671  0.33773  Biso   1.000  C
  C181     1.0000 0.67008  0.95795  0.34927  Biso   1.000  C
  H175     1.0000 0.69360  0.97970  0.33550  Biso   1.000  H
  C182     1.0000 0.63431  0.97682  0.38048  Biso   1.000  C
  H176     1.0000 0.63450  0.01090  0.38830  Biso   1.000  H
  C183     1.0000 0.70465  0.84344  0.27883  Biso   1.000  C
  C184     1.0000 0.74077  0.80696  0.27854  Biso   1.000  C
  H177     1.0000 0.76940  0.81070  0.29790  Biso   1.000  H
  C185     1.0000 0.96200  0.01810  0.16810  Biso   1.000  C
  H178     1.0000 0.93440  0.03080  0.18520  Biso   1.000  H
  N16      1.0000 0.91620  0.04260  0.04760  Biso   1.000  N
  C186     1.0000 0.91400  0.04330  0.09480  Biso   1.000  C
  H179     1.0000 0.88700  0.05680  0.11220  Biso   1.000  H
  C187     1.0000 0.95990  0.01980  0.11940  Biso   1.000  C
  O40      1.0000 0.00190  0.98290  0.04580  Biso   1.000  O
  C188     1.0000 0.86750  0.05740  0.02680  Biso   1.000  C
  H180     1.0000 0.84170  0.03430  0.03840  Biso   1.000  H
  H181     1.0000 0.85890  0.09090  0.03840  Biso   1.000  H
  C189     1.0000 0.03890  0.96670  0.47150  Biso   1.000  C
  H182     1.0000 0.07160  0.97770  0.45960  Biso   1.000  H
  C190     1.0000 0.57320  0.13300  0.54990  Biso   1.000  C
  H183     1.0000 0.58830  0.10700  0.57010  Biso   1.000  H
  H184     1.0000 0.54050  0.14140  0.56380  Biso   1.000  H
  C191     1.0000 0.60770  0.18100  0.55040  Biso   1.000  C
  H185     1.0000 0.59150  0.20710  0.56970  Biso   1.000  H
  H186     1.0000 0.63940  0.17270  0.56610  Biso   1.000  H
  H187     1.0000 0.51430  0.15640  0.52870  Biso   1.000  H
  H188     1.0000 0.55470  0.22710  0.47120  Biso   1.000  H
  H189     1.0000 0.62820  0.08900  0.47130  Biso   1.000  H
  H190     1.0000 0.66960  0.15710  0.52870  Biso   1.000  H
  C192     1.0000 0.94880  0.99680  0.47160  Biso   1.000  C
  H191     1.0000 0.92930  0.02530  0.45980  Biso   1.000  H
  H192     1.0000 0.03310  0.93270  0.45960  Biso   1.000  H
  N17      1.0000 0.38766  0.21077  0.80869  Biso   1.000  N
  O41      1.0000 0.47533  0.42953  0.86241  Biso   1.000  O
  O42      1.0000 0.47301  0.43195  0.78077  Biso   1.000  O
  O43      1.0000 0.51096  0.06509  0.94948  Biso   1.000  O
  O44      1.0000 0.43613  0.02515  0.94960  Biso   1.000  O
  C193     1.0000 0.46672  0.41077  0.82156  Biso   1.000  C
  C194     1.0000 0.44652  0.35782  0.81906  Biso   1.000  C
  C195     1.0000 0.43578  0.33638  0.77414  Biso   1.000  C
  H193     1.0000 0.44110  0.35480  0.74560  Biso   1.000  H
  C196     1.0000 0.41720  0.28760  0.77111  Biso   1.000  C
  H194     1.0000 0.41080  0.27330  0.74060  Biso   1.000  H
  C197     1.0000 0.40822  0.26045  0.81273  Biso   1.000  C
  C198     1.0000 0.41863  0.28156  0.85777  Biso   1.000  C
  H195     1.0000 0.41280  0.26310  0.88620  Biso   1.000  H
  C199     1.0000 0.43772  0.33011  0.86101  Biso   1.000  C
  H196     1.0000 0.44460  0.34400  0.89160  Biso   1.000  H
  C200     1.0000 0.46629  0.05956  0.93617  Biso   1.000  C
  C201     1.0000 0.44526  0.09758  0.90064  Biso   1.000  C
  C202     1.0000 0.39447  0.09823  0.88851  Biso   1.000  C
  H197     1.0000 0.37310  0.07380  0.90140  Biso   1.000  H
  C203     1.0000 0.37537  0.13459  0.85769  Biso   1.000  C
  H198     1.0000 0.34120  0.13440  0.85000  Biso   1.000  H
  C204     1.0000 0.40671  0.17191  0.83773  Biso   1.000  C
  C205     1.0000 0.45795  0.17008  0.84927  Biso   1.000  C
  H199     1.0000 0.47970  0.19360  0.83550  Biso   1.000  H
  C206     1.0000 0.47682  0.13431  0.88048  Biso   1.000  C
  H200     1.0000 0.51090  0.13450  0.88830  Biso   1.000  H
  C207     1.0000 0.34344  0.20465  0.77883  Biso   1.000  C
  C208     1.0000 0.30696  0.24077  0.77854  Biso   1.000  C
  H201     1.0000 0.31070  0.26940  0.79790  Biso   1.000  H
  C209     1.0000 0.51810  0.46200  0.66810  Biso   1.000  C
  H202     1.0000 0.53080  0.43440  0.68520  Biso   1.000  H
  N18      1.0000 0.54260  0.41620  0.54760  Biso   1.000  N
  C210     1.0000 0.54330  0.41400  0.59480  Biso   1.000  C
  H203     1.0000 0.55680  0.38700  0.61220  Biso   1.000  H
  C211     1.0000 0.51980  0.45990  0.61940  Biso   1.000  C
  O45      1.0000 0.48290  0.50190  0.54580  Biso   1.000  O
  C212     1.0000 0.55740  0.36750  0.52680  Biso   1.000  C
  H204     1.0000 0.53430  0.34170  0.53840  Biso   1.000  H
  H205     1.0000 0.59090  0.35890  0.53840  Biso   1.000  H
  C213     1.0000 0.46670  0.53890  0.97150  Biso   1.000  C
  H206     1.0000 0.47770  0.57160  0.95960  Biso   1.000  H
  C214     1.0000 0.63300  0.07320  0.04990  Biso   1.000  C
  H207     1.0000 0.60700  0.08830  0.07010  Biso   1.000  H
  H208     1.0000 0.64140  0.04050  0.06380  Biso   1.000  H
  C215     1.0000 0.68100  0.10770  0.05040  Biso   1.000  C
  H209     1.0000 0.70710  0.09150  0.06970  Biso   1.000  H
  H210     1.0000 0.67270  0.13940  0.06610  Biso   1.000  H
  H211     1.0000 0.65640  0.01430  0.02870  Biso   1.000  H
  H212     1.0000 0.72710  0.05470  0.97120  Biso   1.000  H
  H213     1.0000 0.58900  0.12820  0.97130  Biso   1.000  H
  H214     1.0000 0.65710  0.16960  0.02870  Biso   1.000  H
  C216     1.0000 0.49680  0.44880  0.97160  Biso   1.000  C
  H215     1.0000 0.52530  0.42930  0.95980  Biso   1.000  H
  H216     1.0000 0.43270  0.53310  0.95960  Biso   1.000  H
  N19      1.0000 0.61234  0.78923  0.80869  Biso   1.000  N
  O46      1.0000 0.52467  0.57047  0.86241  Biso   1.000  O
  O47      1.0000 0.52699  0.56805  0.78077  Biso   1.000  O
  O48      1.0000 0.48904  0.93491  0.94948  Biso   1.000  O
  O49      1.0000 0.56387  0.97485  0.94960  Biso   1.000  O
  C217     1.0000 0.53328  0.58923  0.82156  Biso   1.000  C
  C218     1.0000 0.55348  0.64218  0.81906  Biso   1.000  C
  C219     1.0000 0.56422  0.66362  0.77414  Biso   1.000  C
  H217     1.0000 0.55890  0.64520  0.74560  Biso   1.000  H
  C220     1.0000 0.58280  0.71240  0.77111  Biso   1.000  C
  H218     1.0000 0.58920  0.72670  0.74060  Biso   1.000  H
  C221     1.0000 0.59178  0.73955  0.81273  Biso   1.000  C
  C222     1.0000 0.58137  0.71844  0.85777  Biso   1.000  C
  H219     1.0000 0.58720  0.73690  0.88620  Biso   1.000  H
  C223     1.0000 0.56228  0.66989  0.86101  Biso   1.000  C
  H220     1.0000 0.55540  0.65600  0.89160  Biso   1.000  H
  C224     1.0000 0.53371  0.94044  0.93617  Biso   1.000  C
  C225     1.0000 0.55474  0.90242  0.90064  Biso   1.000  C
  C226     1.0000 0.60553  0.90177  0.88851  Biso   1.000  C
  H221     1.0000 0.62690  0.92620  0.90140  Biso   1.000  H
  C227     1.0000 0.62463  0.86541  0.85769  Biso   1.000  C
  H222     1.0000 0.65880  0.86560  0.85000  Biso   1.000  H
  C228     1.0000 0.59329  0.82809  0.83773  Biso   1.000  C
  C229     1.0000 0.54205  0.82992  0.84927  Biso   1.000  C
  H223     1.0000 0.52030  0.80640  0.83550  Biso   1.000  H
  C230     1.0000 0.52318  0.86569  0.88048  Biso   1.000  C
  H224     1.0000 0.48910  0.86550  0.88830  Biso   1.000  H
  C231     1.0000 0.65656  0.79535  0.77883  Biso   1.000  C
  C232     1.0000 0.69304  0.75923  0.77854  Biso   1.000  C
  H225     1.0000 0.68930  0.73060  0.79790  Biso   1.000  H
  C233     1.0000 0.48190  0.53800  0.66810  Biso   1.000  C
  H226     1.0000 0.46920  0.56560  0.68520  Biso   1.000  H
  N20      1.0000 0.45740  0.58380  0.54760  Biso   1.000  N
  C234     1.0000 0.45670  0.58600  0.59480  Biso   1.000  C
  H227     1.0000 0.44320  0.61300  0.61220  Biso   1.000  H
  C235     1.0000 0.48020  0.54010  0.61940  Biso   1.000  C
  O50      1.0000 0.51710  0.49810  0.54580  Biso   1.000  O
  C236     1.0000 0.44260  0.63250  0.52680  Biso   1.000  C
  H228     1.0000 0.46570  0.65830  0.53840  Biso   1.000  H
  H229     1.0000 0.40910  0.64110  0.53840  Biso   1.000  H
  C237     1.0000 0.53330  0.46110  0.97150  Biso   1.000  C
  H230     1.0000 0.52230  0.42840  0.95960  Biso   1.000  H
  C238     1.0000 0.36700  0.92680  0.04990  Biso   1.000  C
  H231     1.0000 0.39300  0.91170  0.07010  Biso   1.000  H
  H232     1.0000 0.35860  0.95950  0.06380  Biso   1.000  H
  C239     1.0000 0.31900  0.89230  0.05040  Biso   1.000  C
  H233     1.0000 0.29290  0.90850  0.06970  Biso   1.000  H
  H234     1.0000 0.32730  0.86060  0.06610  Biso   1.000  H
  H235     1.0000 0.34360  0.98570  0.02870  Biso   1.000  H
  H236     1.0000 0.27290  0.94530  0.97120  Biso   1.000  H
  H237     1.0000 0.41100  0.87180  0.97130  Biso   1.000  H
  H238     1.0000 0.34290  0.83040  0.02870  Biso   1.000  H
  C240     1.0000 0.50320  0.55120  0.97160  Biso   1.000  C
  H239     1.0000 0.47470  0.57070  0.95980  Biso   1.000  H
  H240     1.0000 0.56730  0.46690  0.95960  Biso   1.000  H
  N21      1.0000 0.78923  0.38766  0.80869  Biso   1.000  N
  O51      1.0000 0.57047  0.47533  0.86241  Biso   1.000  O
  O52      1.0000 0.56805  0.47301  0.78077  Biso   1.000  O
  O53      1.0000 0.93491  0.51096  0.94948  Biso   1.000  O
  O54      1.0000 0.97485  0.43613  0.94960  Biso   1.000  O
  C241     1.0000 0.58923  0.46672  0.82156  Biso   1.000  C
  C242     1.0000 0.64218  0.44652  0.81906  Biso   1.000  C
  C243     1.0000 0.66362  0.43578  0.77414  Biso   1.000  C
  H241     1.0000 0.64520  0.44110  0.74560  Biso   1.000  H
  C244     1.0000 0.71240  0.41720  0.77111  Biso   1.000  C
  H242     1.0000 0.72670  0.41080  0.74060  Biso   1.000  H
  C245     1.0000 0.73955  0.40822  0.81273  Biso   1.000  C
  C246     1.0000 0.71844  0.41863  0.85777  Biso   1.000  C
  H243     1.0000 0.73690  0.41280  0.88620  Biso   1.000  H
  C247     1.0000 0.66989  0.43772  0.86101  Biso   1.000  C
  H244     1.0000 0.65600  0.44460  0.89160  Biso   1.000  H
  C248     1.0000 0.94044  0.46629  0.93617  Biso   1.000  C
  C249     1.0000 0.90242  0.44526  0.90064  Biso   1.000  C
  C250     1.0000 0.90177  0.39447  0.88851  Biso   1.000  C
  H245     1.0000 0.92620  0.37310  0.90140  Biso   1.000  H
  C251     1.0000 0.86541  0.37537  0.85769  Biso   1.000  C
  H246     1.0000 0.86560  0.34120  0.85000  Biso   1.000  H
  C252     1.0000 0.82809  0.40671  0.83773  Biso   1.000  C
  C253     1.0000 0.82992  0.45795  0.84927  Biso   1.000  C
  H247     1.0000 0.80640  0.47970  0.83550  Biso   1.000  H
  C254     1.0000 0.86569  0.47682  0.88048  Biso   1.000  C
  H248     1.0000 0.86550  0.51090  0.88830  Biso   1.000  H
  C255     1.0000 0.79535  0.34344  0.77883  Biso   1.000  C
  C256     1.0000 0.75923  0.30696  0.77854  Biso   1.000  C
  H249     1.0000 0.73060  0.31070  0.79790  Biso   1.000  H
  C257     1.0000 0.53800  0.51810  0.66810  Biso   1.000  C
  H250     1.0000 0.56560  0.53080  0.68520  Biso   1.000  H
  N22      1.0000 0.58380  0.54260  0.54760  Biso   1.000  N
  C258     1.0000 0.58600  0.54330  0.59480  Biso   1.000  C
  H251     1.0000 0.61300  0.55680  0.61220  Biso   1.000  H
  C259     1.0000 0.54010  0.51980  0.61940  Biso   1.000  C
  O55      1.0000 0.49810  0.48290  0.54580  Biso   1.000  O
  C260     1.0000 0.63250  0.55740  0.52680  Biso   1.000  C
  H252     1.0000 0.65830  0.53430  0.53840  Biso   1.000  H
  H253     1.0000 0.64110  0.59090  0.53840  Biso   1.000  H
  C261     1.0000 0.46110  0.46670  0.97150  Biso   1.000  C
  H254     1.0000 0.42840  0.47770  0.95960  Biso   1.000  H
  C262     1.0000 0.92680  0.63300  0.04990  Biso   1.000  C
  H255     1.0000 0.91170  0.60700  0.07010  Biso   1.000  H
  H256     1.0000 0.95950  0.64140  0.06380  Biso   1.000  H
  C263     1.0000 0.89230  0.68100  0.05040  Biso   1.000  C
  H257     1.0000 0.90850  0.70710  0.06970  Biso   1.000  H
  H258     1.0000 0.86060  0.67270  0.06610  Biso   1.000  H
  H259     1.0000 0.98570  0.65640  0.02870  Biso   1.000  H
  H260     1.0000 0.94530  0.72710  0.97120  Biso   1.000  H
  H261     1.0000 0.87180  0.58900  0.97130  Biso   1.000  H
  H262     1.0000 0.83040  0.65710  0.02870  Biso   1.000  H
  C264     1.0000 0.55120  0.49680  0.97160  Biso   1.000  C
  H263     1.0000 0.57070  0.52530  0.95980  Biso   1.000  H
  H264     1.0000 0.46690  0.43270  0.95960  Biso   1.000  H
  N23      1.0000 0.21077  0.61234  0.80869  Biso   1.000  N
  O56      1.0000 0.42953  0.52467  0.86241  Biso   1.000  O
  O57      1.0000 0.43195  0.52699  0.78077  Biso   1.000  O
  O58      1.0000 0.06509  0.48904  0.94948  Biso   1.000  O
  O59      1.0000 0.02515  0.56387  0.94960  Biso   1.000  O
  C265     1.0000 0.41077  0.53328  0.82156  Biso   1.000  C
  C266     1.0000 0.35782  0.55348  0.81906  Biso   1.000  C
  C267     1.0000 0.33638  0.56422  0.77414  Biso   1.000  C
  H265     1.0000 0.35480  0.55890  0.74560  Biso   1.000  H
  C268     1.0000 0.28760  0.58280  0.77111  Biso   1.000  C
  H266     1.0000 0.27330  0.58920  0.74060  Biso   1.000  H
  C269     1.0000 0.26045  0.59178  0.81273  Biso   1.000  C
  C270     1.0000 0.28156  0.58137  0.85777  Biso   1.000  C
  H267     1.0000 0.26310  0.58720  0.88620  Biso   1.000  H
  C271     1.0000 0.33011  0.56228  0.86101  Biso   1.000  C
  H268     1.0000 0.34400  0.55540  0.89160  Biso   1.000  H
  C272     1.0000 0.05956  0.53371  0.93617  Biso   1.000  C
  C273     1.0000 0.09758  0.55474  0.90064  Biso   1.000  C
  C274     1.0000 0.09823  0.60553  0.88851  Biso   1.000  C
  H269     1.0000 0.07380  0.62690  0.90140  Biso   1.000  H
  C275     1.0000 0.13459  0.62463  0.85769  Biso   1.000  C
  H270     1.0000 0.13440  0.65880  0.85000  Biso   1.000  H
  C276     1.0000 0.17191  0.59329  0.83773  Biso   1.000  C
  C277     1.0000 0.17008  0.54205  0.84927  Biso   1.000  C
  H271     1.0000 0.19360  0.52030  0.83550  Biso   1.000  H
  C278     1.0000 0.13431  0.52318  0.88048  Biso   1.000  C
  H272     1.0000 0.13450  0.48910  0.88830  Biso   1.000  H
  C279     1.0000 0.20465  0.65656  0.77883  Biso   1.000  C
  C280     1.0000 0.24077  0.69304  0.77854  Biso   1.000  C
  H273     1.0000 0.26940  0.68930  0.79790  Biso   1.000  H
  C281     1.0000 0.46200  0.48190  0.66810  Biso   1.000  C
  H274     1.0000 0.43440  0.46920  0.68520  Biso   1.000  H
  N24      1.0000 0.41620  0.45740  0.54760  Biso   1.000  N
  C282     1.0000 0.41400  0.45670  0.59480  Biso   1.000  C
  H275     1.0000 0.38700  0.44320  0.61220  Biso   1.000  H
  C283     1.0000 0.45990  0.48020  0.61940  Biso   1.000  C
  O60      1.0000 0.50190  0.51710  0.54580  Biso   1.000  O
  C284     1.0000 0.36750  0.44260  0.52680  Biso   1.000  C
  H276     1.0000 0.34170  0.46570  0.53840  Biso   1.000  H
  H277     1.0000 0.35890  0.40910  0.53840  Biso   1.000  H
  C285     1.0000 0.53890  0.53330  0.97150  Biso   1.000  C
  H278     1.0000 0.57160  0.52230  0.95960  Biso   1.000  H
  C286     1.0000 0.07320  0.36700  0.04990  Biso   1.000  C
  H279     1.0000 0.08830  0.39300  0.07010  Biso   1.000  H
  H280     1.0000 0.04050  0.35860  0.06380  Biso   1.000  H
  C287     1.0000 0.10770  0.31900  0.05040  Biso   1.000  C
  H281     1.0000 0.09150  0.29290  0.06970  Biso   1.000  H
  H282     1.0000 0.13940  0.32730  0.06610  Biso   1.000  H
  H283     1.0000 0.01430  0.34360  0.02870  Biso   1.000  H
  H284     1.0000 0.05470  0.27290  0.97120  Biso   1.000  H
  H285     1.0000 0.12820  0.41100  0.97130  Biso   1.000  H
  H286     1.0000 0.16960  0.34290  0.02870  Biso   1.000  H
  C288     1.0000 0.44880  0.50320  0.97160  Biso   1.000  C
  H287     1.0000 0.42930  0.47470  0.95980  Biso   1.000  H
  H288     1.0000 0.53310  0.56730  0.95960  Biso   1.000  H
  N25      1.0000 0.11234  0.71077  0.69131  Biso   1.000  N
  O61      1.0000 0.02467  0.92953  0.63759  Biso   1.000  O
  O62      1.0000 0.02699  0.93195  0.71923  Biso   1.000  O
  O63      1.0000 0.98904  0.56509  0.55052  Biso   1.000  O
  O64      1.0000 0.06387  0.52515  0.55040  Biso   1.000  O
  C289     1.0000 0.03328  0.91077  0.67844  Biso   1.000  C
  C290     1.0000 0.05348  0.85782  0.68094  Biso   1.000  C
  C291     1.0000 0.06422  0.83638  0.72586  Biso   1.000  C
  H289     1.0000 0.05890  0.85480  0.75440  Biso   1.000  H
  C292     1.0000 0.08280  0.78760  0.72889  Biso   1.000  C
  H290     1.0000 0.08920  0.77330  0.75940  Biso   1.000  H
  C293     1.0000 0.09178  0.76045  0.68727  Biso   1.000  C
  C294     1.0000 0.08137  0.78156  0.64223  Biso   1.000  C
  H291     1.0000 0.08720  0.76310  0.61380  Biso   1.000  H
  C295     1.0000 0.06228  0.83011  0.63899  Biso   1.000  C
  H292     1.0000 0.05540  0.84400  0.60840  Biso   1.000  H
  C296     1.0000 0.03371  0.55956  0.56383  Biso   1.000  C
  C297     1.0000 0.05474  0.59758  0.59936  Biso   1.000  C
  C298     1.0000 0.10553  0.59823  0.61149  Biso   1.000  C
  H293     1.0000 0.12690  0.57380  0.59860  Biso   1.000  H
  C299     1.0000 0.12463  0.63459  0.64231  Biso   1.000  C
  H294     1.0000 0.15880  0.63440  0.65000  Biso   1.000  H
  C300     1.0000 0.09329  0.67191  0.66227  Biso   1.000  C
  C301     1.0000 0.04205  0.67008  0.65073  Biso   1.000  C
  H295     1.0000 0.02030  0.69360  0.66450  Biso   1.000  H
  C302     1.0000 0.02318  0.63431  0.61952  Biso   1.000  C
  H296     1.0000 0.98910  0.63450  0.61170  Biso   1.000  H
  C303     1.0000 0.15656  0.70465  0.72117  Biso   1.000  C
  C304     1.0000 0.19304  0.74077  0.72146  Biso   1.000  C
  H297     1.0000 0.18930  0.76940  0.70210  Biso   1.000  H
  C305     1.0000 0.98190  0.96200  0.83190  Biso   1.000  C
  H298     1.0000 0.96920  0.93440  0.81480  Biso   1.000  H
  N26      1.0000 0.95740  0.91620  0.95240  Biso   1.000  N
  C306     1.0000 0.95670  0.91400  0.90520  Biso   1.000  C
  H299     1.0000 0.94320  0.88700  0.88780  Biso   1.000  H
  C307     1.0000 0.98020  0.95990  0.88060  Biso   1.000  C
  O65      1.0000 0.01710  0.00190  0.95420  Biso   1.000  O
  C308     1.0000 0.94260  0.86750  0.97320  Biso   1.000  C
  H300     1.0000 0.96570  0.84170  0.96160  Biso   1.000  H
  H301     1.0000 0.90910  0.85890  0.96160  Biso   1.000  H
  C309     1.0000 0.03330  0.03890  0.52850  Biso   1.000  C
  H302     1.0000 0.02230  0.07160  0.54040  Biso   1.000  H
  C310     1.0000 0.86700  0.57320  0.45010  Biso   1.000  C
  H303     1.0000 0.89300  0.58830  0.42990  Biso   1.000  H
  H304     1.0000 0.85860  0.54050  0.43620  Biso   1.000  H
  C311     1.0000 0.81900  0.60770  0.44960  Biso   1.000  C
  H305     1.0000 0.79290  0.59150  0.43030  Biso   1.000  H
  H306     1.0000 0.82730  0.63940  0.43390  Biso   1.000  H
  H307     1.0000 0.84360  0.51430  0.47130  Biso   1.000  H
  H308     1.0000 0.77290  0.55470  0.52880  Biso   1.000  H
  H309     1.0000 0.91100  0.62820  0.52870  Biso   1.000  H
  H310     1.0000 0.84290  0.66960  0.47130  Biso   1.000  H
  C312     1.0000 0.00320  0.94880  0.52840  Biso   1.000  C
  H311     1.0000 0.97470  0.92930  0.54020  Biso   1.000  H
  H312     1.0000 0.06730  0.03310  0.54040  Biso   1.000  H
  N27      1.0000 0.88766  0.28923  0.69131  Biso   1.000  N
  O66      1.0000 0.97533  0.07047  0.63759  Biso   1.000  O
  O67      1.0000 0.97301  0.06805  0.71923  Biso   1.000  O
  O68      1.0000 0.01096  0.43491  0.55052  Biso   1.000  O
  O69      1.0000 0.93613  0.47485  0.55040  Biso   1.000  O
  C313     1.0000 0.96672  0.08923  0.67844  Biso   1.000  C
  C314     1.0000 0.94652  0.14218  0.68094  Biso   1.000  C
  C315     1.0000 0.93578  0.16362  0.72586  Biso   1.000  C
  H313     1.0000 0.94110  0.14520  0.75440  Biso   1.000  H
  C316     1.0000 0.91720  0.21240  0.72889  Biso   1.000  C
  H314     1.0000 0.91080  0.22670  0.75940  Biso   1.000  H
  C317     1.0000 0.90822  0.23955  0.68727  Biso   1.000  C
  C318     1.0000 0.91863  0.21844  0.64223  Biso   1.000  C
  H315     1.0000 0.91280  0.23690  0.61380  Biso   1.000  H
  C319     1.0000 0.93772  0.16989  0.63899  Biso   1.000  C
  H316     1.0000 0.94460  0.15600  0.60840  Biso   1.000  H
  C320     1.0000 0.96629  0.44044  0.56383  Biso   1.000  C
  C321     1.0000 0.94526  0.40242  0.59936  Biso   1.000  C
  C322     1.0000 0.89447  0.40177  0.61149  Biso   1.000  C
  H317     1.0000 0.87310  0.42620  0.59860  Biso   1.000  H
  C323     1.0000 0.87537  0.36541  0.64231  Biso   1.000  C
  H318     1.0000 0.84120  0.36560  0.65000  Biso   1.000  H
  C324     1.0000 0.90671  0.32809  0.66227  Biso   1.000  C
  C325     1.0000 0.95795  0.32992  0.65073  Biso   1.000  C
  H319     1.0000 0.97970  0.30640  0.66450  Biso   1.000  H
  C326     1.0000 0.97682  0.36569  0.61952  Biso   1.000  C
  H320     1.0000 0.01090  0.36550  0.61170  Biso   1.000  H
  C327     1.0000 0.84344  0.29535  0.72117  Biso   1.000  C
  C328     1.0000 0.80696  0.25923  0.72146  Biso   1.000  C
  H321     1.0000 0.81070  0.23060  0.70210  Biso   1.000  H
  C329     1.0000 0.01810  0.03800  0.83190  Biso   1.000  C
  H322     1.0000 0.03080  0.06560  0.81480  Biso   1.000  H
  N28      1.0000 0.04260  0.08380  0.95240  Biso   1.000  N
  C330     1.0000 0.04330  0.08600  0.90520  Biso   1.000  C
  H323     1.0000 0.05680  0.11300  0.88780  Biso   1.000  H
  C331     1.0000 0.01980  0.04010  0.88060  Biso   1.000  C
  O70      1.0000 0.98290  0.99810  0.95420  Biso   1.000  O
  C332     1.0000 0.05740  0.13250  0.97320  Biso   1.000  C
  H324     1.0000 0.03430  0.15830  0.96160  Biso   1.000  H
  H325     1.0000 0.09090  0.14110  0.96160  Biso   1.000  H
  C333     1.0000 0.96670  0.96110  0.52850  Biso   1.000  C
  H326     1.0000 0.97770  0.92840  0.54040  Biso   1.000  H
  C334     1.0000 0.13300  0.42680  0.45010  Biso   1.000  C
  H327     1.0000 0.10700  0.41170  0.42990  Biso   1.000  H
  H328     1.0000 0.14140  0.45950  0.43620  Biso   1.000  H
  C335     1.0000 0.18100  0.39230  0.44960  Biso   1.000  C
  H329     1.0000 0.20710  0.40850  0.43030  Biso   1.000  H
  H330     1.0000 0.17270  0.36060  0.43390  Biso   1.000  H
  H331     1.0000 0.15640  0.48570  0.47130  Biso   1.000  H
  H332     1.0000 0.22710  0.44530  0.52880  Biso   1.000  H
  H333     1.0000 0.08900  0.37180  0.52870  Biso   1.000  H
  H334     1.0000 0.15710  0.33040  0.47130  Biso   1.000  H
  C336     1.0000 0.99680  0.05120  0.52840  Biso   1.000  C
  H335     1.0000 0.02530  0.07070  0.54020  Biso   1.000  H
  H336     1.0000 0.93270  0.96690  0.54040  Biso   1.000  H
  N29      1.0000 0.71077  0.88766  0.69131  Biso   1.000  N
  O71      1.0000 0.92953  0.97533  0.63759  Biso   1.000  O
  O72      1.0000 0.93195  0.97301  0.71923  Biso   1.000  O
  O73      1.0000 0.56509  0.01096  0.55052  Biso   1.000  O
  O74      1.0000 0.52515  0.93613  0.55040  Biso   1.000  O
  C337     1.0000 0.91077  0.96672  0.67844  Biso   1.000  C
  C338     1.0000 0.85782  0.94652  0.68094  Biso   1.000  C
  C339     1.0000 0.83638  0.93578  0.72586  Biso   1.000  C
  H337     1.0000 0.85480  0.94110  0.75440  Biso   1.000  H
  C340     1.0000 0.78760  0.91720  0.72889  Biso   1.000  C
  H338     1.0000 0.77330  0.91080  0.75940  Biso   1.000  H
  C341     1.0000 0.76045  0.90822  0.68727  Biso   1.000  C
  C342     1.0000 0.78156  0.91863  0.64223  Biso   1.000  C
  H339     1.0000 0.76310  0.91280  0.61380  Biso   1.000  H
  C343     1.0000 0.83011  0.93772  0.63899  Biso   1.000  C
  H340     1.0000 0.84400  0.94460  0.60840  Biso   1.000  H
  C344     1.0000 0.55956  0.96629  0.56383  Biso   1.000  C
  C345     1.0000 0.59758  0.94526  0.59936  Biso   1.000  C
  C346     1.0000 0.59823  0.89447  0.61149  Biso   1.000  C
  H341     1.0000 0.57380  0.87310  0.59860  Biso   1.000  H
  C347     1.0000 0.63459  0.87537  0.64231  Biso   1.000  C
  H342     1.0000 0.63440  0.84120  0.65000  Biso   1.000  H
  C348     1.0000 0.67191  0.90671  0.66227  Biso   1.000  C
  C349     1.0000 0.67008  0.95795  0.65073  Biso   1.000  C
  H343     1.0000 0.69360  0.97970  0.66450  Biso   1.000  H
  C350     1.0000 0.63431  0.97682  0.61952  Biso   1.000  C
  H344     1.0000 0.63450  0.01090  0.61170  Biso   1.000  H
  C351     1.0000 0.70465  0.84344  0.72117  Biso   1.000  C
  C352     1.0000 0.74077  0.80696  0.72146  Biso   1.000  C
  H345     1.0000 0.76940  0.81070  0.70210  Biso   1.000  H
  C353     1.0000 0.96200  0.01810  0.83190  Biso   1.000  C
  H346     1.0000 0.93440  0.03080  0.81480  Biso   1.000  H
  N30      1.0000 0.91620  0.04260  0.95240  Biso   1.000  N
  C354     1.0000 0.91400  0.04330  0.90520  Biso   1.000  C
  H347     1.0000 0.88700  0.05680  0.88780  Biso   1.000  H
  C355     1.0000 0.95990  0.01980  0.88060  Biso   1.000  C
  O75      1.0000 0.00190  0.98290  0.95420  Biso   1.000  O
  C356     1.0000 0.86750  0.05740  0.97320  Biso   1.000  C
  H348     1.0000 0.84170  0.03430  0.96160  Biso   1.000  H
  H349     1.0000 0.85890  0.09090  0.96160  Biso   1.000  H
  C357     1.0000 0.03890  0.96670  0.52850  Biso   1.000  C
  H350     1.0000 0.07160  0.97770  0.54040  Biso   1.000  H
  C358     1.0000 0.57320  0.13300  0.45010  Biso   1.000  C
  H351     1.0000 0.58830  0.10700  0.42990  Biso   1.000  H
  H352     1.0000 0.54050  0.14140  0.43620  Biso   1.000  H
  C359     1.0000 0.60770  0.18100  0.44960  Biso   1.000  C
  H353     1.0000 0.59150  0.20710  0.43030  Biso   1.000  H
  H354     1.0000 0.63940  0.17270  0.43390  Biso   1.000  H
  H355     1.0000 0.51430  0.15640  0.47130  Biso   1.000  H
  H356     1.0000 0.55470  0.22710  0.52880  Biso   1.000  H
  H357     1.0000 0.62820  0.08900  0.52870  Biso   1.000  H
  H358     1.0000 0.66960  0.15710  0.47130  Biso   1.000  H
  C360     1.0000 0.94880  0.99680  0.52840  Biso   1.000  C
  H359     1.0000 0.92930  0.02530  0.54020  Biso   1.000  H
  H360     1.0000 0.03310  0.93270  0.54040  Biso   1.000  H
  N31      1.0000 0.28923  0.11234  0.69131  Biso   1.000  N
  O76      1.0000 0.07047  0.02467  0.63759  Biso   1.000  O
  O77      1.0000 0.06805  0.02699  0.71923  Biso   1.000  O
  O78      1.0000 0.43491  0.98904  0.55052  Biso   1.000  O
  O79      1.0000 0.47485  0.06387  0.55040  Biso   1.000  O
  C361     1.0000 0.08923  0.03328  0.67844  Biso   1.000  C
  C362     1.0000 0.14218  0.05348  0.68094  Biso   1.000  C
  C363     1.0000 0.16362  0.06422  0.72586  Biso   1.000  C
  H361     1.0000 0.14520  0.05890  0.75440  Biso   1.000  H
  C364     1.0000 0.21240  0.08280  0.72889  Biso   1.000  C
  H362     1.0000 0.22670  0.08920  0.75940  Biso   1.000  H
  C365     1.0000 0.23955  0.09178  0.68727  Biso   1.000  C
  C366     1.0000 0.21844  0.08137  0.64223  Biso   1.000  C
  H363     1.0000 0.23690  0.08720  0.61380  Biso   1.000  H
  C367     1.0000 0.16989  0.06228  0.63899  Biso   1.000  C
  H364     1.0000 0.15600  0.05540  0.60840  Biso   1.000  H
  C368     1.0000 0.44044  0.03371  0.56383  Biso   1.000  C
  C369     1.0000 0.40242  0.05474  0.59936  Biso   1.000  C
  C370     1.0000 0.40177  0.10553  0.61149  Biso   1.000  C
  H365     1.0000 0.42620  0.12690  0.59860  Biso   1.000  H
  C371     1.0000 0.36541  0.12463  0.64231  Biso   1.000  C
  H366     1.0000 0.36560  0.15880  0.65000  Biso   1.000  H
  C372     1.0000 0.32809  0.09329  0.66227  Biso   1.000  C
  C373     1.0000 0.32992  0.04205  0.65073  Biso   1.000  C
  H367     1.0000 0.30640  0.02030  0.66450  Biso   1.000  H
  C374     1.0000 0.36569  0.02318  0.61952  Biso   1.000  C
  H368     1.0000 0.36550  0.98910  0.61170  Biso   1.000  H
  C375     1.0000 0.29535  0.15656  0.72117  Biso   1.000  C
  C376     1.0000 0.25923  0.19304  0.72146  Biso   1.000  C
  H369     1.0000 0.23060  0.18930  0.70210  Biso   1.000  H
  C377     1.0000 0.03800  0.98190  0.83190  Biso   1.000  C
  H370     1.0000 0.06560  0.96920  0.81480  Biso   1.000  H
  N32      1.0000 0.08380  0.95740  0.95240  Biso   1.000  N
  C378     1.0000 0.08600  0.95670  0.90520  Biso   1.000  C
  H371     1.0000 0.11300  0.94320  0.88780  Biso   1.000  H
  C379     1.0000 0.04010  0.98020  0.88060  Biso   1.000  C
  O80      1.0000 0.99810  0.01710  0.95420  Biso   1.000  O
  C380     1.0000 0.13250  0.94260  0.97320  Biso   1.000  C
  H372     1.0000 0.15830  0.96570  0.96160  Biso   1.000  H
  H373     1.0000 0.14110  0.90910  0.96160  Biso   1.000  H
  C381     1.0000 0.96110  0.03330  0.52850  Biso   1.000  C
  H374     1.0000 0.92840  0.02230  0.54040  Biso   1.000  H
  C382     1.0000 0.42680  0.86700  0.45010  Biso   1.000  C
  H375     1.0000 0.41170  0.89300  0.42990  Biso   1.000  H
  H376     1.0000 0.45950  0.85860  0.43620  Biso   1.000  H
  C383     1.0000 0.39230  0.81900  0.44960  Biso   1.000  C
  H377     1.0000 0.40850  0.79290  0.43030  Biso   1.000  H
  H378     1.0000 0.36060  0.82730  0.43390  Biso   1.000  H
  H379     1.0000 0.48570  0.84360  0.47130  Biso   1.000  H
  H380     1.0000 0.44530  0.77290  0.52880  Biso   1.000  H
  H381     1.0000 0.37180  0.91100  0.52870  Biso   1.000  H
  H382     1.0000 0.33040  0.84290  0.47130  Biso   1.000  H
  C384     1.0000 0.05120  0.00320  0.52840  Biso   1.000  C
  H383     1.0000 0.07070  0.97470  0.54020  Biso   1.000  H
  H384     1.0000 0.96690  0.06730  0.54040  Biso   1.000  H
  Cu1      1.0000 0.50000  0.50000  0.12901  Biso   1.000  Cu
  Cu2      1.0000 0.50000  0.50000  0.22686  Biso   1.000  Cu
  N33      1.0000 0.50000  0.50000  0.30520  Biso   1.000  N
  N34      1.0000 0.50000  0.50000  0.04764  Biso   1.000  N
  C385     1.0000 0.50000  0.50000  0.40800  Biso   1.000  C
  Cu3      1.0000 0.00000  0.00000  0.37099  Biso   1.000  Cu
  Cu4      1.0000 0.00000  0.00000  0.27314  Biso   1.000  Cu
  N35      1.0000 0.00000  0.00000  0.19480  Biso   1.000  N
  N36      1.0000 0.00000  0.00000  0.45236  Biso   1.000  N
  C386     1.0000 0.00000  0.00000  0.09200  Biso   1.000  C
  Cu5      1.0000 0.50000  0.50000  0.87099  Biso   1.000  Cu
  Cu6      1.0000 0.50000  0.50000  0.77314  Biso   1.000  Cu
  N37      1.0000 0.50000  0.50000  0.69480  Biso   1.000  N
  N38      1.0000 0.50000  0.50000  0.95236  Biso   1.000  N
  C387     1.0000 0.50000  0.50000  0.59200  Biso   1.000  C
  Cu7      1.0000 0.00000  0.00000  0.62901  Biso   1.000  Cu
  Cu8      1.0000 0.00000  0.00000  0.72686  Biso   1.000  Cu
  N39      1.0000 0.00000  0.00000  0.80520  Biso   1.000  N
  N40      1.0000 0.00000  0.00000  0.54764  Biso   1.000  N
  C388     1.0000 0.00000  0.00000  0.90800  Biso   1.000  C
  Cu9      1.0000 0.45607  0.97592  0.00000  Biso   1.000  Cu
  N41      1.0000 0.38589  0.93342  0.00000  Biso   1.000  N
  N42      1.0000 0.29880  0.88180  0.00000  Biso   1.000  N
  C389     1.0000 0.39160  0.88130  0.00000  Biso   1.000  C
  C390     1.0000 0.34330  0.85200  0.00000  Biso   1.000  C
  C391     1.0000 0.34250  0.96400  0.00000  Biso   1.000  C
  C392     1.0000 0.29210  0.93560  0.00000  Biso   1.000  C
  Cu10     1.0000 0.54393  0.02408  0.00000  Biso   1.000  Cu
  N43      1.0000 0.61411  0.06658  0.00000  Biso   1.000  N
  N44      1.0000 0.70120  0.11820  0.00000  Biso   1.000  N
  C393     1.0000 0.60840  0.11870  0.00000  Biso   1.000  C
  C394     1.0000 0.65670  0.14800  0.00000  Biso   1.000  C
  C395     1.0000 0.65750  0.03600  0.00000  Biso   1.000  C
  C396     1.0000 0.70790  0.06440  0.00000  Biso   1.000  C
  Cu11     1.0000 0.02408  0.45607  0.00000  Biso   1.000  Cu
  N45      1.0000 0.06658  0.38589  0.00000  Biso   1.000  N
  N46      1.0000 0.11820  0.29880  0.00000  Biso   1.000  N
  C397     1.0000 0.11870  0.39160  0.00000  Biso   1.000  C
  C398     1.0000 0.14800  0.34330  0.00000  Biso   1.000  C
  C399     1.0000 0.03600  0.34250  0.00000  Biso   1.000  C
  C400     1.0000 0.06440  0.29210  0.00000  Biso   1.000  C
  Cu12     1.0000 0.97592  0.54393  0.00000  Biso   1.000  Cu
  N47      1.0000 0.93342  0.61411  0.00000  Biso   1.000  N
  N48      1.0000 0.88180  0.70120  0.00000  Biso   1.000  N
  C401     1.0000 0.88130  0.60840  0.00000  Biso   1.000  C
  C402     1.0000 0.85200  0.65670  0.00000  Biso   1.000  C
  C403     1.0000 0.96400  0.65750  0.00000  Biso   1.000  C
  C404     1.0000 0.93560  0.70790  0.00000  Biso   1.000  C
  Cu13     1.0000 0.04393  0.47592  0.50000  Biso   1.000  Cu
  N49      1.0000 0.11411  0.43342  0.50000  Biso   1.000  N
  N50      1.0000 0.20120  0.38180  0.50000  Biso   1.000  N
  C405     1.0000 0.10840  0.38130  0.50000  Biso   1.000  C
  C406     1.0000 0.15670  0.35200  0.50000  Biso   1.000  C
  C407     1.0000 0.15750  0.46400  0.50000  Biso   1.000  C
  C408     1.0000 0.20790  0.43560  0.50000  Biso   1.000  C
  Cu14     1.0000 0.95607  0.52408  0.50000  Biso   1.000  Cu
  N51      1.0000 0.88589  0.56658  0.50000  Biso   1.000  N
  N52      1.0000 0.79880  0.61820  0.50000  Biso   1.000  N
  C409     1.0000 0.89160  0.61870  0.50000  Biso   1.000  C
  C410     1.0000 0.84330  0.64800  0.50000  Biso   1.000  C
  C411     1.0000 0.84250  0.53600  0.50000  Biso   1.000  C
  C412     1.0000 0.79210  0.56440  0.50000  Biso   1.000  C
  Cu15     1.0000 0.47592  0.95607  0.50000  Biso   1.000  Cu
  N53      1.0000 0.43342  0.88589  0.50000  Biso   1.000  N
  N54      1.0000 0.38180  0.79880  0.50000  Biso   1.000  N
  C413     1.0000 0.38130  0.89160  0.50000  Biso   1.000  C
  C414     1.0000 0.35200  0.84330  0.50000  Biso   1.000  C
  C415     1.0000 0.46400  0.84250  0.50000  Biso   1.000  C
  C416     1.0000 0.43560  0.79210  0.50000  Biso   1.000  C
  Cu16     1.0000 0.52408  0.04393  0.50000  Biso   1.000  Cu
  N55      1.0000 0.56658  0.11411  0.50000  Biso   1.000  N
  N56      1.0000 0.61820  0.20120  0.50000  Biso   1.000  N
  C417     1.0000 0.61870  0.10840  0.50000  Biso   1.000  C
  C418     1.0000 0.64800  0.15670  0.50000  Biso   1.000  C
  C419     1.0000 0.53600  0.15750  0.50000  Biso   1.000  C
  C420     1.0000 0.56440  0.20790  0.50000  Biso   1.000  C
  C421     1.0000 0.73521  0.76479  0.25000  Biso   1.000  C
  H385     1.0000 0.76000  0.74000  0.25000  Biso   1.000  H
  C422     1.0000 0.66229  0.83771  0.25000  Biso   1.000  C
  H386     1.0000 0.63750  0.86250  0.25000  Biso   1.000  H
  C423     1.0000 0.26479  0.23521  0.25000  Biso   1.000  C
  H387     1.0000 0.24000  0.26000  0.25000  Biso   1.000  H
  C424     1.0000 0.33771  0.16229  0.25000  Biso   1.000  C
  H388     1.0000 0.36250  0.13750  0.25000  Biso   1.000  H
  C425     1.0000 0.23521  0.73521  0.25000  Biso   1.000  C
  H389     1.0000 0.26000  0.76000  0.25000  Biso   1.000  H
  C426     1.0000 0.16229  0.66229  0.25000  Biso   1.000  C
  H390     1.0000 0.13750  0.63750  0.25000  Biso   1.000  H
  C427     1.0000 0.76479  0.26479  0.25000  Biso   1.000  C
  H391     1.0000 0.74000  0.24000  0.25000  Biso   1.000  H
  C428     1.0000 0.83771  0.33771  0.25000  Biso   1.000  C
  H392     1.0000 0.86250  0.36250  0.25000  Biso   1.000  H
  C429     1.0000 0.26479  0.23521  0.75000  Biso   1.000  C
  H393     1.0000 0.24000  0.26000  0.75000  Biso   1.000  H
  C430     1.0000 0.33771  0.16229  0.75000  Biso   1.000  C
  H394     1.0000 0.36250  0.13750  0.75000  Biso   1.000  H
  C431     1.0000 0.73521  0.76479  0.75000  Biso   1.000  C
  H395     1.0000 0.76000  0.74000  0.75000  Biso   1.000  H
  C432     1.0000 0.66229  0.83771  0.75000  Biso   1.000  C
  H396     1.0000 0.63750  0.86250  0.75000  Biso   1.000  H
  C433     1.0000 0.76479  0.26479  0.75000  Biso   1.000  C
  H397     1.0000 0.74000  0.24000  0.75000  Biso   1.000  H
  C434     1.0000 0.83771  0.33771  0.75000  Biso   1.000  C
  H398     1.0000 0.86250  0.36250  0.75000  Biso   1.000  H
  C435     1.0000 0.23521  0.73521  0.75000  Biso   1.000  C
  H399     1.0000 0.26000  0.76000  0.75000  Biso   1.000  H
  C436     1.0000 0.16229  0.66229  0.75000  Biso   1.000  C
  H400     1.0000 0.13750  0.63750  0.75000  Biso   1.000  H
  Ni1      1.0000 0.48300  0.53890  0.50000  Biso   1.000  Ni
  Ni2      1.0000 0.51700  0.46110  0.50000  Biso   1.000  Ni
  Ni3      1.0000 0.46110  0.48300  0.50000  Biso   1.000  Ni
  Ni4      1.0000 0.53890  0.51700  0.50000  Biso   1.000  Ni
  Ni5      1.0000 0.01700  0.03890  0.00000  Biso   1.000  Ni
  Ni6      1.0000 0.98300  0.96110  0.00000  Biso   1.000  Ni
  Ni7      1.0000 0.03890  0.98300  0.00000  Biso   1.000  Ni
  Ni8      1.0000 0.96110  0.01700  0.00000  Biso   1.000  Ni
