data_image0
_cell_length_a       27.0608
_cell_length_b       27.0608
_cell_length_c       19.406
_cell_angle_alpha    90
_cell_angle_beta     90
_cell_angle_gamma    90

_symmetry_space_group_name_H-M    "P 1"
_symmetry_int_tables_number       1

loop_
  _symmetry_equiv_pos_as_xyz
  'x, y, z'

loop_
  _atom_site_label
  _atom_site_occupancy
  _atom_site_fract_x
  _atom_site_fract_y
  _atom_site_fract_z
  _atom_site_thermal_displace_type
  _atom_site_B_iso_or_equiv
  _atom_site_type_symbol
  C1       1.0000 0.36710  0.10450  0.22790  Biso   1.000  C
  H1       1.0000 0.37560  0.07320  0.21060  Biso   1.000  H
  C2       1.0000 0.19180  0.15760  0.24790  Biso   1.000  C
  H2       1.0000 0.20130  0.13860  0.28630  Biso   1.000  H
  C3       1.0000 0.20090  0.02500  0.17090  Biso   1.000  C
  H3       1.0000 0.17280  0.04540  0.17340  Biso   1.000  H
  C4       1.0000 0.33270  0.14190  0.03580  Biso   1.000  C
  H4       1.0000 0.35860  0.15230  0.06460  Biso   1.000  H
  N1       1.0000 0.32420  0.13000  0.21340  Biso   1.000  N
  N2       1.0000 0.21140  0.15380  0.18320  Biso   1.000  N
  N3       1.0000 0.24880  0.04090  0.16680  Biso   1.000  N
  N4       1.0000 0.28610  0.12330  0.05710  Biso   1.000  N
  Zn1      1.0000 0.26787  0.11096  0.15461  Biso   1.000  Zn
  C5       1.0000 0.21360  0.02550  0.22260  Biso   1.000  C
  H5       1.0000 0.19530  0.04640  0.25160  Biso   1.000  H
  C6       1.0000 0.31580  0.16350  0.03540  Biso   1.000  C
  H6       1.0000 0.33240  0.18600  0.06410  Biso   1.000  H
  C7       1.0000 0.86710  0.60450  0.72790  Biso   1.000  C
  H7       1.0000 0.87560  0.57320  0.71060  Biso   1.000  H
  C8       1.0000 0.69180  0.65760  0.74790  Biso   1.000  C
  H8       1.0000 0.70130  0.63860  0.78630  Biso   1.000  H
  C9       1.0000 0.70090  0.52500  0.67090  Biso   1.000  C
  H9       1.0000 0.67280  0.54540  0.67340  Biso   1.000  H
  C10      1.0000 0.83270  0.64190  0.53580  Biso   1.000  C
  H10      1.0000 0.85860  0.65230  0.56460  Biso   1.000  H
  N5       1.0000 0.82420  0.63000  0.71340  Biso   1.000  N
  N6       1.0000 0.71140  0.65380  0.68320  Biso   1.000  N
  N7       1.0000 0.74880  0.54090  0.66680  Biso   1.000  N
  N8       1.0000 0.78610  0.62330  0.55710  Biso   1.000  N
  Zn2      1.0000 0.76787  0.61096  0.65461  Biso   1.000  Zn
  C11      1.0000 0.71360  0.52550  0.72260  Biso   1.000  C
  H11      1.0000 0.69530  0.54640  0.75160  Biso   1.000  H
  C12      1.0000 0.81580  0.66350  0.53540  Biso   1.000  C
  H12      1.0000 0.83240  0.68600  0.56410  Biso   1.000  H
  C13      1.0000 0.63290  0.89550  0.22790  Biso   1.000  C
  H13      1.0000 0.62440  0.92680  0.21060  Biso   1.000  H
  C14      1.0000 0.80820  0.84240  0.24790  Biso   1.000  C
  H14      1.0000 0.79870  0.86140  0.28630  Biso   1.000  H
  C15      1.0000 0.79910  0.97500  0.17090  Biso   1.000  C
  H15      1.0000 0.82720  0.95460  0.17340  Biso   1.000  H
  C16      1.0000 0.66730  0.85810  0.03580  Biso   1.000  C
  H16      1.0000 0.64140  0.84770  0.06460  Biso   1.000  H
  N9       1.0000 0.67580  0.87000  0.21340  Biso   1.000  N
  N10      1.0000 0.78860  0.84620  0.18320  Biso   1.000  N
  N11      1.0000 0.75120  0.95910  0.16680  Biso   1.000  N
  N12      1.0000 0.71390  0.87670  0.05710  Biso   1.000  N
  Zn3      1.0000 0.73213  0.88904  0.15461  Biso   1.000  Zn
  C17      1.0000 0.78640  0.97450  0.22260  Biso   1.000  C
  H17      1.0000 0.80470  0.95360  0.25160  Biso   1.000  H
  C18      1.0000 0.68420  0.83650  0.03540  Biso   1.000  C
  H18      1.0000 0.66760  0.81400  0.06410  Biso   1.000  H
  C19      1.0000 0.13290  0.39550  0.72790  Biso   1.000  C
  H19      1.0000 0.12440  0.42680  0.71060  Biso   1.000  H
  C20      1.0000 0.30820  0.34240  0.74790  Biso   1.000  C
  H20      1.0000 0.29870  0.36140  0.78630  Biso   1.000  H
  C21      1.0000 0.29910  0.47500  0.67090  Biso   1.000  C
  H21      1.0000 0.32720  0.45460  0.67340  Biso   1.000  H
  C22      1.0000 0.16730  0.35810  0.53580  Biso   1.000  C
  H22      1.0000 0.14140  0.34770  0.56460  Biso   1.000  H
  N13      1.0000 0.17580  0.37000  0.71340  Biso   1.000  N
  N14      1.0000 0.28860  0.34620  0.68320  Biso   1.000  N
  N15      1.0000 0.25120  0.45910  0.66680  Biso   1.000  N
  N16      1.0000 0.21390  0.37670  0.55710  Biso   1.000  N
  Zn4      1.0000 0.23213  0.38904  0.65461  Biso   1.000  Zn
  C23      1.0000 0.28640  0.47450  0.72260  Biso   1.000  C
  H23      1.0000 0.30470  0.45360  0.75160  Biso   1.000  H
  C24      1.0000 0.18420  0.33650  0.53540  Biso   1.000  C
  H24      1.0000 0.16760  0.31400  0.56410  Biso   1.000  H
  C25      1.0000 0.89550  0.36710  0.22790  Biso   1.000  C
  H25      1.0000 0.92680  0.37560  0.21060  Biso   1.000  H
  C26      1.0000 0.84240  0.19180  0.24790  Biso   1.000  C
  H26      1.0000 0.86140  0.20130  0.28630  Biso   1.000  H
  C27      1.0000 0.97500  0.20090  0.17090  Biso   1.000  C
  H27      1.0000 0.95460  0.17280  0.17340  Biso   1.000  H
  C28      1.0000 0.85810  0.33270  0.03580  Biso   1.000  C
  H28      1.0000 0.84770  0.35860  0.06460  Biso   1.000  H
  N17      1.0000 0.87000  0.32420  0.21340  Biso   1.000  N
  N18      1.0000 0.84620  0.21140  0.18320  Biso   1.000  N
  N19      1.0000 0.95910  0.24880  0.16680  Biso   1.000  N
  N20      1.0000 0.87670  0.28610  0.05710  Biso   1.000  N
  Zn5      1.0000 0.88904  0.26787  0.15461  Biso   1.000  Zn
  C29      1.0000 0.97450  0.21360  0.22260  Biso   1.000  C
  H29      1.0000 0.95360  0.19530  0.25160  Biso   1.000  H
  C30      1.0000 0.83650  0.31580  0.03540  Biso   1.000  C
  H30      1.0000 0.81400  0.33240  0.06410  Biso   1.000  H
  C31      1.0000 0.39550  0.86710  0.72790  Biso   1.000  C
  H31      1.0000 0.42680  0.87560  0.71060  Biso   1.000  H
  C32      1.0000 0.34240  0.69180  0.74790  Biso   1.000  C
  H32      1.0000 0.36140  0.70130  0.78630  Biso   1.000  H
  C33      1.0000 0.47500  0.70090  0.67090  Biso   1.000  C
  H33      1.0000 0.45460  0.67280  0.67340  Biso   1.000  H
  C34      1.0000 0.35810  0.83270  0.53580  Biso   1.000  C
  H34      1.0000 0.34770  0.85860  0.56460  Biso   1.000  H
  N21      1.0000 0.37000  0.82420  0.71340  Biso   1.000  N
  N22      1.0000 0.34620  0.71140  0.68320  Biso   1.000  N
  N23      1.0000 0.45910  0.74880  0.66680  Biso   1.000  N
  N24      1.0000 0.37670  0.78610  0.55710  Biso   1.000  N
  Zn6      1.0000 0.38904  0.76787  0.65461  Biso   1.000  Zn
  C35      1.0000 0.47450  0.71360  0.72260  Biso   1.000  C
  H35      1.0000 0.45360  0.69530  0.75160  Biso   1.000  H
  C36      1.0000 0.33650  0.81580  0.53540  Biso   1.000  C
  H36      1.0000 0.31400  0.83240  0.56410  Biso   1.000  H
  C37      1.0000 0.10450  0.63290  0.22790  Biso   1.000  C
  H37      1.0000 0.07320  0.62440  0.21060  Biso   1.000  H
  C38      1.0000 0.15760  0.80820  0.24790  Biso   1.000  C
  H38      1.0000 0.13860  0.79870  0.28630  Biso   1.000  H
  C39      1.0000 0.02500  0.79910  0.17090  Biso   1.000  C
  H39      1.0000 0.04540  0.82720  0.17340  Biso   1.000  H
  C40      1.0000 0.14190  0.66730  0.03580  Biso   1.000  C
  H40      1.0000 0.15230  0.64140  0.06460  Biso   1.000  H
  N25      1.0000 0.13000  0.67580  0.21340  Biso   1.000  N
  N26      1.0000 0.15380  0.78860  0.18320  Biso   1.000  N
  N27      1.0000 0.04090  0.75120  0.16680  Biso   1.000  N
  N28      1.0000 0.12330  0.71390  0.05710  Biso   1.000  N
  Zn7      1.0000 0.11096  0.73213  0.15461  Biso   1.000  Zn
  C41      1.0000 0.02550  0.78640  0.22260  Biso   1.000  C
  H41      1.0000 0.04640  0.80470  0.25160  Biso   1.000  H
  C42      1.0000 0.16350  0.68420  0.03540  Biso   1.000  C
  H42      1.0000 0.18600  0.66760  0.06410  Biso   1.000  H
  C43      1.0000 0.60450  0.13290  0.72790  Biso   1.000  C
  H43      1.0000 0.57320  0.12440  0.71060  Biso   1.000  H
  C44      1.0000 0.65760  0.30820  0.74790  Biso   1.000  C
  H44      1.0000 0.63860  0.29870  0.78630  Biso   1.000  H
  C45      1.0000 0.52500  0.29910  0.67090  Biso   1.000  C
  H45      1.0000 0.54540  0.32720  0.67340  Biso   1.000  H
  C46      1.0000 0.64190  0.16730  0.53580  Biso   1.000  C
  H46      1.0000 0.65230  0.14140  0.56460  Biso   1.000  H
  N29      1.0000 0.63000  0.17580  0.71340  Biso   1.000  N
  N30      1.0000 0.65380  0.28860  0.68320  Biso   1.000  N
  N31      1.0000 0.54090  0.25120  0.66680  Biso   1.000  N
  N32      1.0000 0.62330  0.21390  0.55710  Biso   1.000  N
  Zn8      1.0000 0.61096  0.23213  0.65461  Biso   1.000  Zn
  C47      1.0000 0.52550  0.28640  0.72260  Biso   1.000  C
  H47      1.0000 0.54640  0.30470  0.75160  Biso   1.000  H
  C48      1.0000 0.66350  0.18420  0.53540  Biso   1.000  C
  H48      1.0000 0.68600  0.16760  0.56410  Biso   1.000  H
  C49      1.0000 0.63290  0.10450  0.77210  Biso   1.000  C
  H49      1.0000 0.62440  0.07320  0.78940  Biso   1.000  H
  C50      1.0000 0.80820  0.15760  0.75210  Biso   1.000  C
  H50      1.0000 0.79870  0.13860  0.71370  Biso   1.000  H
  C51      1.0000 0.79910  0.02500  0.82910  Biso   1.000  C
  H51      1.0000 0.82720  0.04540  0.82660  Biso   1.000  H
  C52      1.0000 0.66730  0.14190  0.96420  Biso   1.000  C
  H52      1.0000 0.64140  0.15230  0.93540  Biso   1.000  H
  N33      1.0000 0.67580  0.13000  0.78660  Biso   1.000  N
  N34      1.0000 0.78860  0.15380  0.81680  Biso   1.000  N
  N35      1.0000 0.75120  0.04090  0.83320  Biso   1.000  N
  N36      1.0000 0.71390  0.12330  0.94290  Biso   1.000  N
  Zn9      1.0000 0.73213  0.11096  0.84539  Biso   1.000  Zn
  C53      1.0000 0.78640  0.02550  0.77740  Biso   1.000  C
  H53      1.0000 0.80470  0.04640  0.74840  Biso   1.000  H
  C54      1.0000 0.68420  0.16350  0.96460  Biso   1.000  C
  H54      1.0000 0.66760  0.18600  0.93590  Biso   1.000  H
  C55      1.0000 0.13290  0.60450  0.27210  Biso   1.000  C
  H55      1.0000 0.12440  0.57320  0.28940  Biso   1.000  H
  C56      1.0000 0.30820  0.65760  0.25210  Biso   1.000  C
  H56      1.0000 0.29870  0.63860  0.21370  Biso   1.000  H
  C57      1.0000 0.29910  0.52500  0.32910  Biso   1.000  C
  H57      1.0000 0.32720  0.54540  0.32660  Biso   1.000  H
  C58      1.0000 0.16730  0.64190  0.46420  Biso   1.000  C
  H58      1.0000 0.14140  0.65230  0.43540  Biso   1.000  H
  N37      1.0000 0.17580  0.63000  0.28660  Biso   1.000  N
  N38      1.0000 0.28860  0.65380  0.31680  Biso   1.000  N
  N39      1.0000 0.25120  0.54090  0.33320  Biso   1.000  N
  N40      1.0000 0.21390  0.62330  0.44290  Biso   1.000  N
  Zn10     1.0000 0.23213  0.61096  0.34539  Biso   1.000  Zn
  C59      1.0000 0.28640  0.52550  0.27740  Biso   1.000  C
  H59      1.0000 0.30470  0.54640  0.24840  Biso   1.000  H
  C60      1.0000 0.18420  0.66350  0.46460  Biso   1.000  C
  H60      1.0000 0.16760  0.68600  0.43590  Biso   1.000  H
  C61      1.0000 0.36710  0.89550  0.77210  Biso   1.000  C
  H61      1.0000 0.37560  0.92680  0.78940  Biso   1.000  H
  C62      1.0000 0.19180  0.84240  0.75210  Biso   1.000  C
  H62      1.0000 0.20130  0.86140  0.71370  Biso   1.000  H
  C63      1.0000 0.20090  0.97500  0.82910  Biso   1.000  C
  H63      1.0000 0.17280  0.95460  0.82660  Biso   1.000  H
  C64      1.0000 0.33270  0.85810  0.96420  Biso   1.000  C
  H64      1.0000 0.35860  0.84770  0.93540  Biso   1.000  H
  N41      1.0000 0.32420  0.87000  0.78660  Biso   1.000  N
  N42      1.0000 0.21140  0.84620  0.81680  Biso   1.000  N
  N43      1.0000 0.24880  0.95910  0.83320  Biso   1.000  N
  N44      1.0000 0.28610  0.87670  0.94290  Biso   1.000  N
  Zn11     1.0000 0.26787  0.88904  0.84539  Biso   1.000  Zn
  C65      1.0000 0.21360  0.97450  0.77740  Biso   1.000  C
  H65      1.0000 0.19530  0.95360  0.74840  Biso   1.000  H
  C66      1.0000 0.31580  0.83650  0.96460  Biso   1.000  C
  H66      1.0000 0.33240  0.81400  0.93590  Biso   1.000  H
  C67      1.0000 0.86710  0.39550  0.27210  Biso   1.000  C
  H67      1.0000 0.87560  0.42680  0.28940  Biso   1.000  H
  C68      1.0000 0.69180  0.34240  0.25210  Biso   1.000  C
  H68      1.0000 0.70130  0.36140  0.21370  Biso   1.000  H
  C69      1.0000 0.70090  0.47500  0.32910  Biso   1.000  C
  H69      1.0000 0.67280  0.45460  0.32660  Biso   1.000  H
  C70      1.0000 0.83270  0.35810  0.46420  Biso   1.000  C
  H70      1.0000 0.85860  0.34770  0.43540  Biso   1.000  H
  N45      1.0000 0.82420  0.37000  0.28660  Biso   1.000  N
  N46      1.0000 0.71140  0.34620  0.31680  Biso   1.000  N
  N47      1.0000 0.74880  0.45910  0.33320  Biso   1.000  N
  N48      1.0000 0.78610  0.37670  0.44290  Biso   1.000  N
  Zn12     1.0000 0.76787  0.38904  0.34539  Biso   1.000  Zn
  C71      1.0000 0.71360  0.47450  0.27740  Biso   1.000  C
  H71      1.0000 0.69530  0.45360  0.24840  Biso   1.000  H
  C72      1.0000 0.81580  0.33650  0.46460  Biso   1.000  C
  H72      1.0000 0.83240  0.31400  0.43590  Biso   1.000  H
  C73      1.0000 0.10450  0.36710  0.77210  Biso   1.000  C
  H73      1.0000 0.07320  0.37560  0.78940  Biso   1.000  H
  C74      1.0000 0.15760  0.19180  0.75210  Biso   1.000  C
  H74      1.0000 0.13860  0.20130  0.71370  Biso   1.000  H
  C75      1.0000 0.02500  0.20090  0.82910  Biso   1.000  C
  H75      1.0000 0.04540  0.17280  0.82660  Biso   1.000  H
  C76      1.0000 0.14190  0.33270  0.96420  Biso   1.000  C
  H76      1.0000 0.15230  0.35860  0.93540  Biso   1.000  H
  N49      1.0000 0.13000  0.32420  0.78660  Biso   1.000  N
  N50      1.0000 0.15380  0.21140  0.81680  Biso   1.000  N
  N51      1.0000 0.04090  0.24880  0.83320  Biso   1.000  N
  N52      1.0000 0.12330  0.28610  0.94290  Biso   1.000  N
  Zn13     1.0000 0.11096  0.26787  0.84539  Biso   1.000  Zn
  C77      1.0000 0.02550  0.21360  0.77740  Biso   1.000  C
  H77      1.0000 0.04640  0.19530  0.74840  Biso   1.000  H
  C78      1.0000 0.16350  0.31580  0.96460  Biso   1.000  C
  H78      1.0000 0.18600  0.33240  0.93590  Biso   1.000  H
  C79      1.0000 0.60450  0.86710  0.27210  Biso   1.000  C
  H79      1.0000 0.57320  0.87560  0.28940  Biso   1.000  H
  C80      1.0000 0.65760  0.69180  0.25210  Biso   1.000  C
  H80      1.0000 0.63860  0.70130  0.21370  Biso   1.000  H
  C81      1.0000 0.52500  0.70090  0.32910  Biso   1.000  C
  H81      1.0000 0.54540  0.67280  0.32660  Biso   1.000  H
  C82      1.0000 0.64190  0.83270  0.46420  Biso   1.000  C
  H82      1.0000 0.65230  0.85860  0.43540  Biso   1.000  H
  N53      1.0000 0.63000  0.82420  0.28660  Biso   1.000  N
  N54      1.0000 0.65380  0.71140  0.31680  Biso   1.000  N
  N55      1.0000 0.54090  0.74880  0.33320  Biso   1.000  N
  N56      1.0000 0.62330  0.78610  0.44290  Biso   1.000  N
  Zn14     1.0000 0.61096  0.76787  0.34539  Biso   1.000  Zn
  C83      1.0000 0.52550  0.71360  0.27740  Biso   1.000  C
  H83      1.0000 0.54640  0.69530  0.24840  Biso   1.000  H
  C84      1.0000 0.66350  0.81580  0.46460  Biso   1.000  C
  H84      1.0000 0.68600  0.83240  0.43590  Biso   1.000  H
  C85      1.0000 0.89550  0.63290  0.77210  Biso   1.000  C
  H85      1.0000 0.92680  0.62440  0.78940  Biso   1.000  H
  C86      1.0000 0.84240  0.80820  0.75210  Biso   1.000  C
  H86      1.0000 0.86140  0.79870  0.71370  Biso   1.000  H
  C87      1.0000 0.97500  0.79910  0.82910  Biso   1.000  C
  H87      1.0000 0.95460  0.82720  0.82660  Biso   1.000  H
  C88      1.0000 0.85810  0.66730  0.96420  Biso   1.000  C
  H88      1.0000 0.84770  0.64140  0.93540  Biso   1.000  H
  N57      1.0000 0.87000  0.67580  0.78660  Biso   1.000  N
  N58      1.0000 0.84620  0.78860  0.81680  Biso   1.000  N
  N59      1.0000 0.95910  0.75120  0.83320  Biso   1.000  N
  N60      1.0000 0.87670  0.71390  0.94290  Biso   1.000  N
  Zn15     1.0000 0.88904  0.73213  0.84539  Biso   1.000  Zn
  C89      1.0000 0.97450  0.78640  0.77740  Biso   1.000  C
  H89      1.0000 0.95360  0.80470  0.74840  Biso   1.000  H
  C90      1.0000 0.83650  0.68420  0.96460  Biso   1.000  C
  H90      1.0000 0.81400  0.66760  0.93590  Biso   1.000  H
  C91      1.0000 0.39550  0.13290  0.27210  Biso   1.000  C
  H91      1.0000 0.42680  0.12440  0.28940  Biso   1.000  H
  C92      1.0000 0.34240  0.30820  0.25210  Biso   1.000  C
  H92      1.0000 0.36140  0.29870  0.21370  Biso   1.000  H
  C93      1.0000 0.47500  0.29910  0.32910  Biso   1.000  C
  H93      1.0000 0.45460  0.32720  0.32660  Biso   1.000  H
  C94      1.0000 0.35810  0.16730  0.46420  Biso   1.000  C
  H94      1.0000 0.34770  0.14140  0.43540  Biso   1.000  H
  N61      1.0000 0.37000  0.17580  0.28660  Biso   1.000  N
  N62      1.0000 0.34620  0.28860  0.31680  Biso   1.000  N
  N63      1.0000 0.45910  0.25120  0.33320  Biso   1.000  N
  N64      1.0000 0.37670  0.21390  0.44290  Biso   1.000  N
  Zn16     1.0000 0.38904  0.23213  0.34539  Biso   1.000  Zn
  C95      1.0000 0.47450  0.28640  0.27740  Biso   1.000  C
  H95      1.0000 0.45360  0.30470  0.24840  Biso   1.000  H
  C96      1.0000 0.33650  0.18420  0.46460  Biso   1.000  C
  H96      1.0000 0.31400  0.16760  0.43590  Biso   1.000  H
  C97      1.0000 0.63290  0.89550  0.77210  Biso   1.000  C
  H97      1.0000 0.62440  0.92680  0.78940  Biso   1.000  H
  C98      1.0000 0.80820  0.84240  0.75210  Biso   1.000  C
  H98      1.0000 0.79870  0.86140  0.71370  Biso   1.000  H
  C99      1.0000 0.79910  0.97500  0.82910  Biso   1.000  C
  H99      1.0000 0.82720  0.95460  0.82660  Biso   1.000  H
  C100     1.0000 0.66730  0.85810  0.96420  Biso   1.000  C
  H100     1.0000 0.64140  0.84770  0.93540  Biso   1.000  H
  N65      1.0000 0.67580  0.87000  0.78660  Biso   1.000  N
  N66      1.0000 0.78860  0.84620  0.81680  Biso   1.000  N
  N67      1.0000 0.75120  0.95910  0.83320  Biso   1.000  N
  N68      1.0000 0.71390  0.87670  0.94290  Biso   1.000  N
  Zn17     1.0000 0.73213  0.88904  0.84539  Biso   1.000  Zn
  C101     1.0000 0.78640  0.97450  0.77740  Biso   1.000  C
  H101     1.0000 0.80470  0.95360  0.74840  Biso   1.000  H
  C102     1.0000 0.68420  0.83650  0.96460  Biso   1.000  C
  H102     1.0000 0.66760  0.81400  0.93590  Biso   1.000  H
  C103     1.0000 0.13290  0.39550  0.27210  Biso   1.000  C
  H103     1.0000 0.12440  0.42680  0.28940  Biso   1.000  H
  C104     1.0000 0.30820  0.34240  0.25210  Biso   1.000  C
  H104     1.0000 0.29870  0.36140  0.21370  Biso   1.000  H
  C105     1.0000 0.29910  0.47500  0.32910  Biso   1.000  C
  H105     1.0000 0.32720  0.45460  0.32660  Biso   1.000  H
  C106     1.0000 0.16730  0.35810  0.46420  Biso   1.000  C
  H106     1.0000 0.14140  0.34770  0.43540  Biso   1.000  H
  N69      1.0000 0.17580  0.37000  0.28660  Biso   1.000  N
  N70      1.0000 0.28860  0.34620  0.31680  Biso   1.000  N
  N71      1.0000 0.25120  0.45910  0.33320  Biso   1.000  N
  N72      1.0000 0.21390  0.37670  0.44290  Biso   1.000  N
  Zn18     1.0000 0.23213  0.38904  0.34539  Biso   1.000  Zn
  C107     1.0000 0.28640  0.47450  0.27740  Biso   1.000  C
  H107     1.0000 0.30470  0.45360  0.24840  Biso   1.000  H
  C108     1.0000 0.18420  0.33650  0.46460  Biso   1.000  C
  H108     1.0000 0.16760  0.31400  0.43590  Biso   1.000  H
  C109     1.0000 0.36710  0.10450  0.77210  Biso   1.000  C
  H109     1.0000 0.37560  0.07320  0.78940  Biso   1.000  H
  C110     1.0000 0.19180  0.15760  0.75210  Biso   1.000  C
  H110     1.0000 0.20130  0.13860  0.71370  Biso   1.000  H
  C111     1.0000 0.20090  0.02500  0.82910  Biso   1.000  C
  H111     1.0000 0.17280  0.04540  0.82660  Biso   1.000  H
  C112     1.0000 0.33270  0.14190  0.96420  Biso   1.000  C
  H112     1.0000 0.35860  0.15230  0.93540  Biso   1.000  H
  N73      1.0000 0.32420  0.13000  0.78660  Biso   1.000  N
  N74      1.0000 0.21140  0.15380  0.81680  Biso   1.000  N
  N75      1.0000 0.24880  0.04090  0.83320  Biso   1.000  N
  N76      1.0000 0.28610  0.12330  0.94290  Biso   1.000  N
  Zn19     1.0000 0.26787  0.11096  0.84539  Biso   1.000  Zn
  C113     1.0000 0.21360  0.02550  0.77740  Biso   1.000  C
  H113     1.0000 0.19530  0.04640  0.74840  Biso   1.000  H
  C114     1.0000 0.31580  0.16350  0.96460  Biso   1.000  C
  H114     1.0000 0.33240  0.18600  0.93590  Biso   1.000  H
  C115     1.0000 0.86710  0.60450  0.27210  Biso   1.000  C
  H115     1.0000 0.87560  0.57320  0.28940  Biso   1.000  H
  C116     1.0000 0.69180  0.65760  0.25210  Biso   1.000  C
  H116     1.0000 0.70130  0.63860  0.21370  Biso   1.000  H
  C117     1.0000 0.70090  0.52500  0.32910  Biso   1.000  C
  H117     1.0000 0.67280  0.54540  0.32660  Biso   1.000  H
  C118     1.0000 0.83270  0.64190  0.46420  Biso   1.000  C
  H118     1.0000 0.85860  0.65230  0.43540  Biso   1.000  H
  N77      1.0000 0.82420  0.63000  0.28660  Biso   1.000  N
  N78      1.0000 0.71140  0.65380  0.31680  Biso   1.000  N
  N79      1.0000 0.74880  0.54090  0.33320  Biso   1.000  N
  N80      1.0000 0.78610  0.62330  0.44290  Biso   1.000  N
  Zn20     1.0000 0.76787  0.61096  0.34539  Biso   1.000  Zn
  C119     1.0000 0.71360  0.52550  0.27740  Biso   1.000  C
  H119     1.0000 0.69530  0.54640  0.24840  Biso   1.000  H
  C120     1.0000 0.81580  0.66350  0.46460  Biso   1.000  C
  H120     1.0000 0.83240  0.68600  0.43590  Biso   1.000  H
  C121     1.0000 0.10450  0.63290  0.77210  Biso   1.000  C
  H121     1.0000 0.07320  0.62440  0.78940  Biso   1.000  H
  C122     1.0000 0.15760  0.80820  0.75210  Biso   1.000  C
  H122     1.0000 0.13860  0.79870  0.71370  Biso   1.000  H
  C123     1.0000 0.02500  0.79910  0.82910  Biso   1.000  C
  H123     1.0000 0.04540  0.82720  0.82660  Biso   1.000  H
  C124     1.0000 0.14190  0.66730  0.96420  Biso   1.000  C
  H124     1.0000 0.15230  0.64140  0.93540  Biso   1.000  H
  N81      1.0000 0.13000  0.67580  0.78660  Biso   1.000  N
  N82      1.0000 0.15380  0.78860  0.81680  Biso   1.000  N
  N83      1.0000 0.04090  0.75120  0.83320  Biso   1.000  N
  N84      1.0000 0.12330  0.71390  0.94290  Biso   1.000  N
  Zn21     1.0000 0.11096  0.73213  0.84539  Biso   1.000  Zn
  C125     1.0000 0.02550  0.78640  0.77740  Biso   1.000  C
  H125     1.0000 0.04640  0.80470  0.74840  Biso   1.000  H
  C126     1.0000 0.16350  0.68420  0.96460  Biso   1.000  C
  H126     1.0000 0.18600  0.66760  0.93590  Biso   1.000  H
  C127     1.0000 0.60450  0.13290  0.27210  Biso   1.000  C
  H127     1.0000 0.57320  0.12440  0.28940  Biso   1.000  H
  C128     1.0000 0.65760  0.30820  0.25210  Biso   1.000  C
  H128     1.0000 0.63860  0.29870  0.21370  Biso   1.000  H
  C129     1.0000 0.52500  0.29910  0.32910  Biso   1.000  C
  H129     1.0000 0.54540  0.32720  0.32660  Biso   1.000  H
  C130     1.0000 0.64190  0.16730  0.46420  Biso   1.000  C
  H130     1.0000 0.65230  0.14140  0.43540  Biso   1.000  H
  N85      1.0000 0.63000  0.17580  0.28660  Biso   1.000  N
  N86      1.0000 0.65380  0.28860  0.31680  Biso   1.000  N
  N87      1.0000 0.54090  0.25120  0.33320  Biso   1.000  N
  N88      1.0000 0.62330  0.21390  0.44290  Biso   1.000  N
  Zn22     1.0000 0.61096  0.23213  0.34539  Biso   1.000  Zn
  C131     1.0000 0.52550  0.28640  0.27740  Biso   1.000  C
  H131     1.0000 0.54640  0.30470  0.24840  Biso   1.000  H
  C132     1.0000 0.66350  0.18420  0.46460  Biso   1.000  C
  H132     1.0000 0.68600  0.16760  0.43590  Biso   1.000  H
  C133     1.0000 0.89550  0.36710  0.77210  Biso   1.000  C
  H133     1.0000 0.92680  0.37560  0.78940  Biso   1.000  H
  C134     1.0000 0.84240  0.19180  0.75210  Biso   1.000  C
  H134     1.0000 0.86140  0.20130  0.71370  Biso   1.000  H
  C135     1.0000 0.97500  0.20090  0.82910  Biso   1.000  C
  H135     1.0000 0.95460  0.17280  0.82660  Biso   1.000  H
  C136     1.0000 0.85810  0.33270  0.96420  Biso   1.000  C
  H136     1.0000 0.84770  0.35860  0.93540  Biso   1.000  H
  N89      1.0000 0.87000  0.32420  0.78660  Biso   1.000  N
  N90      1.0000 0.84620  0.21140  0.81680  Biso   1.000  N
  N91      1.0000 0.95910  0.24880  0.83320  Biso   1.000  N
  N92      1.0000 0.87670  0.28610  0.94290  Biso   1.000  N
  Zn23     1.0000 0.88904  0.26787  0.84539  Biso   1.000  Zn
  C137     1.0000 0.97450  0.21360  0.77740  Biso   1.000  C
  H137     1.0000 0.95360  0.19530  0.74840  Biso   1.000  H
  C138     1.0000 0.83650  0.31580  0.96460  Biso   1.000  C
  H138     1.0000 0.81400  0.33240  0.93590  Biso   1.000  H
  C139     1.0000 0.39550  0.86710  0.27210  Biso   1.000  C
  H139     1.0000 0.42680  0.87560  0.28940  Biso   1.000  H
  C140     1.0000 0.34240  0.69180  0.25210  Biso   1.000  C
  H140     1.0000 0.36140  0.70130  0.21370  Biso   1.000  H
  C141     1.0000 0.47500  0.70090  0.32910  Biso   1.000  C
  H141     1.0000 0.45460  0.67280  0.32660  Biso   1.000  H
  C142     1.0000 0.35810  0.83270  0.46420  Biso   1.000  C
  H142     1.0000 0.34770  0.85860  0.43540  Biso   1.000  H
  N93      1.0000 0.37000  0.82420  0.28660  Biso   1.000  N
  N94      1.0000 0.34620  0.71140  0.31680  Biso   1.000  N
  N95      1.0000 0.45910  0.74880  0.33320  Biso   1.000  N
  N96      1.0000 0.37670  0.78610  0.44290  Biso   1.000  N
  Zn24     1.0000 0.38904  0.76787  0.34539  Biso   1.000  Zn
  C143     1.0000 0.47450  0.71360  0.27740  Biso   1.000  C
  H143     1.0000 0.45360  0.69530  0.24840  Biso   1.000  H
  C144     1.0000 0.33650  0.81580  0.46460  Biso   1.000  C
  H144     1.0000 0.31400  0.83240  0.43590  Biso   1.000  H
  C145     1.0000 0.36710  0.89550  0.22790  Biso   1.000  C
  H145     1.0000 0.37560  0.92680  0.21060  Biso   1.000  H
  C146     1.0000 0.19180  0.84240  0.24790  Biso   1.000  C
  H146     1.0000 0.20130  0.86140  0.28630  Biso   1.000  H
  C147     1.0000 0.20090  0.97500  0.17090  Biso   1.000  C
  H147     1.0000 0.17280  0.95460  0.17340  Biso   1.000  H
  C148     1.0000 0.33270  0.85810  0.03580  Biso   1.000  C
  H148     1.0000 0.35860  0.84770  0.06460  Biso   1.000  H
  N97      1.0000 0.32420  0.87000  0.21340  Biso   1.000  N
  N98      1.0000 0.21140  0.84620  0.18320  Biso   1.000  N
  N99      1.0000 0.24880  0.95910  0.16680  Biso   1.000  N
  N100     1.0000 0.28610  0.87670  0.05710  Biso   1.000  N
  Zn25     1.0000 0.26787  0.88904  0.15461  Biso   1.000  Zn
  C149     1.0000 0.21360  0.97450  0.22260  Biso   1.000  C
  H149     1.0000 0.19530  0.95360  0.25160  Biso   1.000  H
  C150     1.0000 0.31580  0.83650  0.03540  Biso   1.000  C
  H150     1.0000 0.33240  0.81400  0.06410  Biso   1.000  H
  C151     1.0000 0.86710  0.39550  0.72790  Biso   1.000  C
  H151     1.0000 0.87560  0.42680  0.71060  Biso   1.000  H
  C152     1.0000 0.69180  0.34240  0.74790  Biso   1.000  C
  H152     1.0000 0.70130  0.36140  0.78630  Biso   1.000  H
  C153     1.0000 0.70090  0.47500  0.67090  Biso   1.000  C
  H153     1.0000 0.67280  0.45460  0.67340  Biso   1.000  H
  C154     1.0000 0.83270  0.35810  0.53580  Biso   1.000  C
  H154     1.0000 0.85860  0.34770  0.56460  Biso   1.000  H
  N101     1.0000 0.82420  0.37000  0.71340  Biso   1.000  N
  N102     1.0000 0.71140  0.34620  0.68320  Biso   1.000  N
  N103     1.0000 0.74880  0.45910  0.66680  Biso   1.000  N
  N104     1.0000 0.78610  0.37670  0.55710  Biso   1.000  N
  Zn26     1.0000 0.76787  0.38904  0.65461  Biso   1.000  Zn
  C155     1.0000 0.71360  0.47450  0.72260  Biso   1.000  C
  H155     1.0000 0.69530  0.45360  0.75160  Biso   1.000  H
  C156     1.0000 0.81580  0.33650  0.53540  Biso   1.000  C
  H156     1.0000 0.83240  0.31400  0.56410  Biso   1.000  H
  C157     1.0000 0.63290  0.10450  0.22790  Biso   1.000  C
  H157     1.0000 0.62440  0.07320  0.21060  Biso   1.000  H
  C158     1.0000 0.80820  0.15760  0.24790  Biso   1.000  C
  H158     1.0000 0.79870  0.13860  0.28630  Biso   1.000  H
  C159     1.0000 0.79910  0.02500  0.17090  Biso   1.000  C
  H159     1.0000 0.82720  0.04540  0.17340  Biso   1.000  H
  C160     1.0000 0.66730  0.14190  0.03580  Biso   1.000  C
  H160     1.0000 0.64140  0.15230  0.06460  Biso   1.000  H
  N105     1.0000 0.67580  0.13000  0.21340  Biso   1.000  N
  N106     1.0000 0.78860  0.15380  0.18320  Biso   1.000  N
  N107     1.0000 0.75120  0.04090  0.16680  Biso   1.000  N
  N108     1.0000 0.71390  0.12330  0.05710  Biso   1.000  N
  Zn27     1.0000 0.73213  0.11096  0.15461  Biso   1.000  Zn
  C161     1.0000 0.78640  0.02550  0.22260  Biso   1.000  C
  H161     1.0000 0.80470  0.04640  0.25160  Biso   1.000  H
  C162     1.0000 0.68420  0.16350  0.03540  Biso   1.000  C
  H162     1.0000 0.66760  0.18600  0.06410  Biso   1.000  H
  C163     1.0000 0.13290  0.60450  0.72790  Biso   1.000  C
  H163     1.0000 0.12440  0.57320  0.71060  Biso   1.000  H
  C164     1.0000 0.30820  0.65760  0.74790  Biso   1.000  C
  H164     1.0000 0.29870  0.63860  0.78630  Biso   1.000  H
  C165     1.0000 0.29910  0.52500  0.67090  Biso   1.000  C
  H165     1.0000 0.32720  0.54540  0.67340  Biso   1.000  H
  C166     1.0000 0.16730  0.64190  0.53580  Biso   1.000  C
  H166     1.0000 0.14140  0.65230  0.56460  Biso   1.000  H
  N109     1.0000 0.17580  0.63000  0.71340  Biso   1.000  N
  N110     1.0000 0.28860  0.65380  0.68320  Biso   1.000  N
  N111     1.0000 0.25120  0.54090  0.66680  Biso   1.000  N
  N112     1.0000 0.21390  0.62330  0.55710  Biso   1.000  N
  Zn28     1.0000 0.23213  0.61096  0.65461  Biso   1.000  Zn
  C167     1.0000 0.28640  0.52550  0.72260  Biso   1.000  C
  H167     1.0000 0.30470  0.54640  0.75160  Biso   1.000  H
  C168     1.0000 0.18420  0.66350  0.53540  Biso   1.000  C
  H168     1.0000 0.16760  0.68600  0.56410  Biso   1.000  H
  C169     1.0000 0.89550  0.63290  0.22790  Biso   1.000  C
  H169     1.0000 0.92680  0.62440  0.21060  Biso   1.000  H
  C170     1.0000 0.84240  0.80820  0.24790  Biso   1.000  C
  H170     1.0000 0.86140  0.79870  0.28630  Biso   1.000  H
  C171     1.0000 0.97500  0.79910  0.17090  Biso   1.000  C
  H171     1.0000 0.95460  0.82720  0.17340  Biso   1.000  H
  C172     1.0000 0.85810  0.66730  0.03580  Biso   1.000  C
  H172     1.0000 0.84770  0.64140  0.06460  Biso   1.000  H
  N113     1.0000 0.87000  0.67580  0.21340  Biso   1.000  N
  N114     1.0000 0.84620  0.78860  0.18320  Biso   1.000  N
  N115     1.0000 0.95910  0.75120  0.16680  Biso   1.000  N
  N116     1.0000 0.87670  0.71390  0.05710  Biso   1.000  N
  Zn29     1.0000 0.88904  0.73213  0.15461  Biso   1.000  Zn
  C173     1.0000 0.97450  0.78640  0.22260  Biso   1.000  C
  H173     1.0000 0.95360  0.80470  0.25160  Biso   1.000  H
  C174     1.0000 0.83650  0.68420  0.03540  Biso   1.000  C
  H174     1.0000 0.81400  0.66760  0.06410  Biso   1.000  H
  C175     1.0000 0.39550  0.13290  0.72790  Biso   1.000  C
  H175     1.0000 0.42680  0.12440  0.71060  Biso   1.000  H
  C176     1.0000 0.34240  0.30820  0.74790  Biso   1.000  C
  H176     1.0000 0.36140  0.29870  0.78630  Biso   1.000  H
  C177     1.0000 0.47500  0.29910  0.67090  Biso   1.000  C
  H177     1.0000 0.45460  0.32720  0.67340  Biso   1.000  H
  C178     1.0000 0.35810  0.16730  0.53580  Biso   1.000  C
  H178     1.0000 0.34770  0.14140  0.56460  Biso   1.000  H
  N117     1.0000 0.37000  0.17580  0.71340  Biso   1.000  N
  N118     1.0000 0.34620  0.28860  0.68320  Biso   1.000  N
  N119     1.0000 0.45910  0.25120  0.66680  Biso   1.000  N
  N120     1.0000 0.37670  0.21390  0.55710  Biso   1.000  N
  Zn30     1.0000 0.38904  0.23213  0.65461  Biso   1.000  Zn
  C179     1.0000 0.47450  0.28640  0.72260  Biso   1.000  C
  H179     1.0000 0.45360  0.30470  0.75160  Biso   1.000  H
  C180     1.0000 0.33650  0.18420  0.53540  Biso   1.000  C
  H180     1.0000 0.31400  0.16760  0.56410  Biso   1.000  H
  C181     1.0000 0.10450  0.36710  0.22790  Biso   1.000  C
  H181     1.0000 0.07320  0.37560  0.21060  Biso   1.000  H
  C182     1.0000 0.15760  0.19180  0.24790  Biso   1.000  C
  H182     1.0000 0.13860  0.20130  0.28630  Biso   1.000  H
  C183     1.0000 0.02500  0.20090  0.17090  Biso   1.000  C
  H183     1.0000 0.04540  0.17280  0.17340  Biso   1.000  H
  C184     1.0000 0.14190  0.33270  0.03580  Biso   1.000  C
  H184     1.0000 0.15230  0.35860  0.06460  Biso   1.000  H
  N121     1.0000 0.13000  0.32420  0.21340  Biso   1.000  N
  N122     1.0000 0.15380  0.21140  0.18320  Biso   1.000  N
  N123     1.0000 0.04090  0.24880  0.16680  Biso   1.000  N
  N124     1.0000 0.12330  0.28610  0.05710  Biso   1.000  N
  Zn31     1.0000 0.11096  0.26787  0.15461  Biso   1.000  Zn
  C185     1.0000 0.02550  0.21360  0.22260  Biso   1.000  C
  H185     1.0000 0.04640  0.19530  0.25160  Biso   1.000  H
  C186     1.0000 0.16350  0.31580  0.03540  Biso   1.000  C
  H186     1.0000 0.18600  0.33240  0.06410  Biso   1.000  H
  C187     1.0000 0.60450  0.86710  0.72790  Biso   1.000  C
  H187     1.0000 0.57320  0.87560  0.71060  Biso   1.000  H
  C188     1.0000 0.65760  0.69180  0.74790  Biso   1.000  C
  H188     1.0000 0.63860  0.70130  0.78630  Biso   1.000  H
  C189     1.0000 0.52500  0.70090  0.67090  Biso   1.000  C
  H189     1.0000 0.54540  0.67280  0.67340  Biso   1.000  H
  C190     1.0000 0.64190  0.83270  0.53580  Biso   1.000  C
  H190     1.0000 0.65230  0.85860  0.56460  Biso   1.000  H
  N125     1.0000 0.63000  0.82420  0.71340  Biso   1.000  N
  N126     1.0000 0.65380  0.71140  0.68320  Biso   1.000  N
  N127     1.0000 0.54090  0.74880  0.66680  Biso   1.000  N
  N128     1.0000 0.62330  0.78610  0.55710  Biso   1.000  N
  Zn32     1.0000 0.61096  0.76787  0.65461  Biso   1.000  Zn
  C191     1.0000 0.52550  0.71360  0.72260  Biso   1.000  C
  H191     1.0000 0.54640  0.69530  0.75160  Biso   1.000  H
  C192     1.0000 0.66350  0.81580  0.53540  Biso   1.000  C
  H192     1.0000 0.68600  0.83240  0.56410  Biso   1.000  H
  C193     1.0000 0.32820  0.17180  0.25000  Biso   1.000  C
  H193     1.0000 0.30360  0.19640  0.25000  Biso   1.000  H
  C194     1.0000 0.67180  0.82820  0.25000  Biso   1.000  C
  H194     1.0000 0.69640  0.80360  0.25000  Biso   1.000  H
  C195     1.0000 0.82820  0.32820  0.25000  Biso   1.000  C
  H195     1.0000 0.80360  0.30360  0.25000  Biso   1.000  H
  C196     1.0000 0.17180  0.67180  0.25000  Biso   1.000  C
  H196     1.0000 0.19640  0.69640  0.25000  Biso   1.000  H
  C197     1.0000 0.67180  0.17180  0.75000  Biso   1.000  C
  H197     1.0000 0.69640  0.19640  0.75000  Biso   1.000  H
  C198     1.0000 0.32820  0.82820  0.75000  Biso   1.000  C
  H198     1.0000 0.30360  0.80360  0.75000  Biso   1.000  H
  C199     1.0000 0.17180  0.32820  0.75000  Biso   1.000  C
  H199     1.0000 0.19640  0.30360  0.75000  Biso   1.000  H
  C200     1.0000 0.82820  0.67180  0.75000  Biso   1.000  C
  H200     1.0000 0.80360  0.69640  0.75000  Biso   1.000  H
  C201     1.0000 0.67180  0.82820  0.75000  Biso   1.000  C
  H201     1.0000 0.69640  0.80360  0.75000  Biso   1.000  H
  C202     1.0000 0.17180  0.32820  0.25000  Biso   1.000  C
  H202     1.0000 0.19640  0.30360  0.25000  Biso   1.000  H
  C203     1.0000 0.32820  0.17180  0.75000  Biso   1.000  C
  H203     1.0000 0.30360  0.19640  0.75000  Biso   1.000  H
  C204     1.0000 0.17180  0.67180  0.75000  Biso   1.000  C
  H204     1.0000 0.19640  0.69640  0.75000  Biso   1.000  H
  C205     1.0000 0.82820  0.32820  0.75000  Biso   1.000  C
  H205     1.0000 0.80360  0.30360  0.75000  Biso   1.000  H
  C206     1.0000 0.32820  0.82820  0.25000  Biso   1.000  C
  H206     1.0000 0.30360  0.80360  0.25000  Biso   1.000  H
  C207     1.0000 0.67180  0.17180  0.25000  Biso   1.000  C
  H207     1.0000 0.69640  0.19640  0.25000  Biso   1.000  H
  C208     1.0000 0.82820  0.67180  0.25000  Biso   1.000  C
  H208     1.0000 0.80360  0.69640  0.25000  Biso   1.000  H
  C209     1.0000 0.18740  0.18740  0.14770  Biso   1.000  C
  H209     1.0000 0.19360  0.19360  0.10090  Biso   1.000  H
  C210     1.0000 0.68740  0.68740  0.64770  Biso   1.000  C
  H210     1.0000 0.69360  0.69360  0.60090  Biso   1.000  H
  C211     1.0000 0.81260  0.81260  0.14770  Biso   1.000  C
  H211     1.0000 0.80640  0.80640  0.10090  Biso   1.000  H
  C212     1.0000 0.31260  0.31260  0.64770  Biso   1.000  C
  H212     1.0000 0.30640  0.30640  0.60090  Biso   1.000  H
  C213     1.0000 0.81260  0.18740  0.14770  Biso   1.000  C
  H213     1.0000 0.80640  0.19360  0.10090  Biso   1.000  H
  C214     1.0000 0.31260  0.68740  0.64770  Biso   1.000  C
  H214     1.0000 0.30640  0.69360  0.60090  Biso   1.000  H
  C215     1.0000 0.18740  0.81260  0.14770  Biso   1.000  C
  H215     1.0000 0.19360  0.80640  0.10090  Biso   1.000  H
  C216     1.0000 0.68740  0.31260  0.64770  Biso   1.000  C
  H216     1.0000 0.69360  0.30640  0.60090  Biso   1.000  H
  C217     1.0000 0.81260  0.18740  0.85230  Biso   1.000  C
  H217     1.0000 0.80640  0.19360  0.89910  Biso   1.000  H
  C218     1.0000 0.31260  0.68740  0.35230  Biso   1.000  C
  H218     1.0000 0.30640  0.69360  0.39910  Biso   1.000  H
  C219     1.0000 0.18740  0.81260  0.85230  Biso   1.000  C
  H219     1.0000 0.19360  0.80640  0.89910  Biso   1.000  H
  C220     1.0000 0.68740  0.31260  0.35230  Biso   1.000  C
  H220     1.0000 0.69360  0.30640  0.39910  Biso   1.000  H
  C221     1.0000 0.18740  0.18740  0.85230  Biso   1.000  C
  H221     1.0000 0.19360  0.19360  0.89910  Biso   1.000  H
  C222     1.0000 0.68740  0.68740  0.35230  Biso   1.000  C
  H222     1.0000 0.69360  0.69360  0.39910  Biso   1.000  H
  C223     1.0000 0.81260  0.81260  0.85230  Biso   1.000  C
  H223     1.0000 0.80640  0.80640  0.89910  Biso   1.000  H
  C224     1.0000 0.31260  0.31260  0.35230  Biso   1.000  C
  H224     1.0000 0.30640  0.30640  0.39910  Biso   1.000  H
  C225     1.0000 0.26840  0.00000  0.15210  Biso   1.000  C
  H225     1.0000 0.29900  0.00000  0.12920  Biso   1.000  H
  C226     1.0000 0.76840  0.50000  0.65210  Biso   1.000  C
  H226     1.0000 0.79900  0.50000  0.62920  Biso   1.000  H
  C227     1.0000 0.73160  0.00000  0.15210  Biso   1.000  C
  H227     1.0000 0.70100  0.00000  0.12920  Biso   1.000  H
  C228     1.0000 0.23160  0.50000  0.65210  Biso   1.000  C
  H228     1.0000 0.20100  0.50000  0.62920  Biso   1.000  H
  C229     1.0000 0.00000  0.26840  0.15210  Biso   1.000  C
  H229     1.0000 0.00000  0.29900  0.12920  Biso   1.000  H
  C230     1.0000 0.50000  0.76840  0.65210  Biso   1.000  C
  H230     1.0000 0.50000  0.79900  0.62920  Biso   1.000  H
  C231     1.0000 0.00000  0.73160  0.15210  Biso   1.000  C
  H231     1.0000 0.00000  0.70100  0.12920  Biso   1.000  H
  C232     1.0000 0.50000  0.23160  0.65210  Biso   1.000  C
  H232     1.0000 0.50000  0.20100  0.62920  Biso   1.000  H
  C233     1.0000 0.73160  0.00000  0.84790  Biso   1.000  C
  H233     1.0000 0.70100  0.00000  0.87080  Biso   1.000  H
  C234     1.0000 0.23160  0.50000  0.34790  Biso   1.000  C
  H234     1.0000 0.20100  0.50000  0.37080  Biso   1.000  H
  C235     1.0000 0.26840  0.00000  0.84790  Biso   1.000  C
  H235     1.0000 0.29900  0.00000  0.87080  Biso   1.000  H
  C236     1.0000 0.76840  0.50000  0.34790  Biso   1.000  C
  H236     1.0000 0.79900  0.50000  0.37080  Biso   1.000  H
  C237     1.0000 0.00000  0.26840  0.84790  Biso   1.000  C
  H237     1.0000 0.00000  0.29900  0.87080  Biso   1.000  H
  C238     1.0000 0.50000  0.76840  0.34790  Biso   1.000  C
  H238     1.0000 0.50000  0.79900  0.37080  Biso   1.000  H
  C239     1.0000 0.00000  0.73160  0.84790  Biso   1.000  C
  H239     1.0000 0.00000  0.70100  0.87080  Biso   1.000  H
  C240     1.0000 0.50000  0.23160  0.34790  Biso   1.000  C
  H240     1.0000 0.50000  0.20100  0.37080  Biso   1.000  H
  C241     1.0000 0.26540  0.10750  0.00000  Biso   1.000  C
  H241     1.0000 0.23790  0.08640  0.00000  Biso   1.000  H
  C242     1.0000 0.76540  0.60750  0.50000  Biso   1.000  C
  H242     1.0000 0.73790  0.58640  0.50000  Biso   1.000  H
  C243     1.0000 0.73460  0.89250  0.00000  Biso   1.000  C
  H243     1.0000 0.76210  0.91360  0.00000  Biso   1.000  H
  C244     1.0000 0.23460  0.39250  0.50000  Biso   1.000  C
  H244     1.0000 0.26210  0.41360  0.50000  Biso   1.000  H
  C245     1.0000 0.89250  0.26540  0.00000  Biso   1.000  C
  H245     1.0000 0.91360  0.23790  0.00000  Biso   1.000  H
  C246     1.0000 0.39250  0.76540  0.50000  Biso   1.000  C
  H246     1.0000 0.41360  0.73790  0.50000  Biso   1.000  H
  C247     1.0000 0.10750  0.73460  0.00000  Biso   1.000  C
  H247     1.0000 0.08640  0.76210  0.00000  Biso   1.000  H
  C248     1.0000 0.60750  0.23460  0.50000  Biso   1.000  C
  H248     1.0000 0.58640  0.26210  0.50000  Biso   1.000  H
  C249     1.0000 0.73460  0.10750  0.00000  Biso   1.000  C
  H249     1.0000 0.76210  0.08640  0.00000  Biso   1.000  H
  C250     1.0000 0.23460  0.60750  0.50000  Biso   1.000  C
  H250     1.0000 0.26210  0.58640  0.50000  Biso   1.000  H
  C251     1.0000 0.26540  0.89250  0.00000  Biso   1.000  C
  H251     1.0000 0.23790  0.91360  0.00000  Biso   1.000  H
  C252     1.0000 0.76540  0.39250  0.50000  Biso   1.000  C
  H252     1.0000 0.73790  0.41360  0.50000  Biso   1.000  H
  C253     1.0000 0.10750  0.26540  0.00000  Biso   1.000  C
  H253     1.0000 0.08640  0.23790  0.00000  Biso   1.000  H
  C254     1.0000 0.60750  0.76540  0.50000  Biso   1.000  C
  H254     1.0000 0.58640  0.73790  0.50000  Biso   1.000  H
  C255     1.0000 0.89250  0.73460  0.00000  Biso   1.000  C
  H255     1.0000 0.91360  0.76210  0.00000  Biso   1.000  H
  C256     1.0000 0.39250  0.23460  0.50000  Biso   1.000  C
  H256     1.0000 0.41360  0.26210  0.50000  Biso   1.000  H
