data_image0
_cell_length_a       28.7595
_cell_length_b       28.7595
_cell_length_c       28.7595
_cell_angle_alpha    90
_cell_angle_beta     90
_cell_angle_gamma    90

_symmetry_space_group_name_H-M    "P 1"
_symmetry_int_tables_number       1

loop_
  _symmetry_equiv_pos_as_xyz
  'x, y, z'

loop_
  _atom_site_label
  _atom_site_occupancy
  _atom_site_fract_x
  _atom_site_fract_y
  _atom_site_fract_z
  _atom_site_thermal_displace_type
  _atom_site_B_iso_or_equiv
  _atom_site_type_symbol
  Co1      1.0000 0.39650  0.10440  0.25150  Biso   1.000  Co
  C1       1.0000 0.33590  0.02320  0.22210  Biso   1.000  C
  C2       1.0000 0.30900  0.05350  0.20100  Biso   1.000  C
  H1       1.0000 0.29860  0.08230  0.19890  Biso   1.000  H
  C3       1.0000 0.26630  0.02900  0.18000  Biso   1.000  C
  H2       1.0000 0.24050  0.04020  0.16620  Biso   1.000  H
  C4       1.0000 0.40200  0.11400  0.14800  Biso   1.000  C
  C5       1.0000 0.41000  0.06900  0.13900  Biso   1.000  C
  H3       1.0000 0.41320  0.04000  0.15560  Biso   1.000  H
  C6       1.0000 0.41400  0.05400  0.08800  Biso   1.000  C
  H4       1.0000 0.41710  0.02240  0.07750  Biso   1.000  H
  C7       1.0000 0.35540  0.17290  0.31940  Biso   1.000  C
  C8       1.0000 0.38480  0.21170  0.31440  Biso   1.000  C
  H5       1.0000 0.40950  0.21540  0.29440  Biso   1.000  H
  C9       1.0000 0.37470  0.24990  0.34280  Biso   1.000  C
  H6       1.0000 0.38820  0.28360  0.32990  Biso   1.000  H
  C10      1.0000 0.47700  0.07700  0.31400  Biso   1.000  C
  C11      1.0000 0.45300  0.05800  0.34800  Biso   1.000  C
  H7       1.0000 0.41790  0.06020  0.35440  Biso   1.000  H
  C12      1.0000 0.47800  0.03200  0.38700  Biso   1.000  C
  H8       1.0000 0.46150  0.01620  0.40840  Biso   1.000  H
  N1       1.0000 0.37670  0.03850  0.24270  Biso   1.000  N
  N2       1.0000 0.39860  0.13390  0.19030  Biso   1.000  N
  N3       1.0000 0.35360  0.13010  0.29720  Biso   1.000  N
  N4       1.0000 0.46060  0.10060  0.27680  Biso   1.000  N
  C13      1.0000 0.42700  0.11800  0.15300  Biso   1.000  C
  C14      1.0000 0.44500  0.07600  0.14600  Biso   1.000  C
  H9       1.0000 0.44180  0.05020  0.16800  Biso   1.000  H
  C15      1.0000 0.46100  0.07100  0.10300  Biso   1.000  C
  H10      1.0000 0.47520  0.04220  0.09660  Biso   1.000  H
  H11      1.0000 0.30250  0.08350  0.31840  Biso   1.000  H
  C16      1.0000 0.47470  0.10150  0.32310  Biso   1.000  C
  C17      1.0000 0.44990  0.09570  0.36470  Biso   1.000  C
  H12      1.0000 0.41760  0.09490  0.36520  Biso   1.000  H
  C18      1.0000 0.47500  0.09300  0.40600  Biso   1.000  C
  H13      1.0000 0.46070  0.08820  0.43360  Biso   1.000  H
  Co2      1.0000 0.60350  0.89560  0.25150  Biso   1.000  Co
  C19      1.0000 0.66410  0.97680  0.22210  Biso   1.000  C
  C20      1.0000 0.69100  0.94650  0.20100  Biso   1.000  C
  H14      1.0000 0.70140  0.91770  0.19890  Biso   1.000  H
  C21      1.0000 0.73370  0.97100  0.18000  Biso   1.000  C
  H15      1.0000 0.75950  0.95980  0.16620  Biso   1.000  H
  C22      1.0000 0.59800  0.88600  0.14800  Biso   1.000  C
  C23      1.0000 0.59000  0.93100  0.13900  Biso   1.000  C
  H16      1.0000 0.58680  0.96000  0.15560  Biso   1.000  H
  C24      1.0000 0.58600  0.94600  0.08800  Biso   1.000  C
  H17      1.0000 0.58290  0.97760  0.07750  Biso   1.000  H
  C25      1.0000 0.64460  0.82710  0.31940  Biso   1.000  C
  C26      1.0000 0.61520  0.78830  0.31440  Biso   1.000  C
  H18      1.0000 0.59050  0.78460  0.29440  Biso   1.000  H
  C27      1.0000 0.62530  0.75010  0.34280  Biso   1.000  C
  H19      1.0000 0.61180  0.71640  0.32990  Biso   1.000  H
  C28      1.0000 0.52300  0.92300  0.31400  Biso   1.000  C
  C29      1.0000 0.54700  0.94200  0.34800  Biso   1.000  C
  H20      1.0000 0.58210  0.93980  0.35440  Biso   1.000  H
  C30      1.0000 0.52200  0.96800  0.38700  Biso   1.000  C
  H21      1.0000 0.53850  0.98380  0.40840  Biso   1.000  H
  N5       1.0000 0.62330  0.96150  0.24270  Biso   1.000  N
  N6       1.0000 0.60140  0.86610  0.19030  Biso   1.000  N
  N7       1.0000 0.64640  0.86990  0.29720  Biso   1.000  N
  N8       1.0000 0.53940  0.89940  0.27680  Biso   1.000  N
  C31      1.0000 0.57300  0.88200  0.15300  Biso   1.000  C
  C32      1.0000 0.55500  0.92400  0.14600  Biso   1.000  C
  H22      1.0000 0.55820  0.94980  0.16800  Biso   1.000  H
  C33      1.0000 0.53900  0.92900  0.10300  Biso   1.000  C
  H23      1.0000 0.52480  0.95780  0.09660  Biso   1.000  H
  H24      1.0000 0.69750  0.91650  0.31840  Biso   1.000  H
  C34      1.0000 0.52530  0.89850  0.32310  Biso   1.000  C
  C35      1.0000 0.55010  0.90430  0.36470  Biso   1.000  C
  H25      1.0000 0.58240  0.90510  0.36520  Biso   1.000  H
  C36      1.0000 0.52500  0.90700  0.40600  Biso   1.000  C
  H26      1.0000 0.53930  0.91180  0.43360  Biso   1.000  H
  Co3      1.0000 0.60350  0.10440  0.74850  Biso   1.000  Co
  C37      1.0000 0.66410  0.02320  0.77790  Biso   1.000  C
  C38      1.0000 0.69100  0.05350  0.79900  Biso   1.000  C
  H27      1.0000 0.70140  0.08230  0.80110  Biso   1.000  H
  C39      1.0000 0.73370  0.02900  0.82000  Biso   1.000  C
  H28      1.0000 0.75950  0.04020  0.83380  Biso   1.000  H
  C40      1.0000 0.59800  0.11400  0.85200  Biso   1.000  C
  C41      1.0000 0.59000  0.06900  0.86100  Biso   1.000  C
  H29      1.0000 0.58680  0.04000  0.84440  Biso   1.000  H
  C42      1.0000 0.58600  0.05400  0.91200  Biso   1.000  C
  H30      1.0000 0.58290  0.02240  0.92250  Biso   1.000  H
  C43      1.0000 0.64460  0.17290  0.68060  Biso   1.000  C
  C44      1.0000 0.61520  0.21170  0.68560  Biso   1.000  C
  H31      1.0000 0.59050  0.21540  0.70560  Biso   1.000  H
  C45      1.0000 0.62530  0.24990  0.65720  Biso   1.000  C
  H32      1.0000 0.61180  0.28360  0.67010  Biso   1.000  H
  C46      1.0000 0.52300  0.07700  0.68600  Biso   1.000  C
  C47      1.0000 0.54700  0.05800  0.65200  Biso   1.000  C
  H33      1.0000 0.58210  0.06020  0.64560  Biso   1.000  H
  C48      1.0000 0.52200  0.03200  0.61300  Biso   1.000  C
  H34      1.0000 0.53850  0.01620  0.59160  Biso   1.000  H
  N9       1.0000 0.62330  0.03850  0.75730  Biso   1.000  N
  N10      1.0000 0.60140  0.13390  0.80970  Biso   1.000  N
  N11      1.0000 0.64640  0.13010  0.70280  Biso   1.000  N
  N12      1.0000 0.53940  0.10060  0.72320  Biso   1.000  N
  C49      1.0000 0.57300  0.11800  0.84700  Biso   1.000  C
  C50      1.0000 0.55500  0.07600  0.85400  Biso   1.000  C
  H35      1.0000 0.55820  0.05020  0.83200  Biso   1.000  H
  C51      1.0000 0.53900  0.07100  0.89700  Biso   1.000  C
  H36      1.0000 0.52480  0.04220  0.90340  Biso   1.000  H
  H37      1.0000 0.69750  0.08350  0.68160  Biso   1.000  H
  C52      1.0000 0.52530  0.10150  0.67690  Biso   1.000  C
  C53      1.0000 0.55010  0.09570  0.63530  Biso   1.000  C
  H38      1.0000 0.58240  0.09490  0.63480  Biso   1.000  H
  C54      1.0000 0.52500  0.09300  0.59400  Biso   1.000  C
  H39      1.0000 0.53930  0.08820  0.56640  Biso   1.000  H
  Co4      1.0000 0.39650  0.89560  0.74850  Biso   1.000  Co
  C55      1.0000 0.33590  0.97680  0.77790  Biso   1.000  C
  C56      1.0000 0.30900  0.94650  0.79900  Biso   1.000  C
  H40      1.0000 0.29860  0.91770  0.80110  Biso   1.000  H
  C57      1.0000 0.26630  0.97100  0.82000  Biso   1.000  C
  H41      1.0000 0.24050  0.95980  0.83380  Biso   1.000  H
  C58      1.0000 0.40200  0.88600  0.85200  Biso   1.000  C
  C59      1.0000 0.41000  0.93100  0.86100  Biso   1.000  C
  H42      1.0000 0.41320  0.96000  0.84440  Biso   1.000  H
  C60      1.0000 0.41400  0.94600  0.91200  Biso   1.000  C
  H43      1.0000 0.41710  0.97760  0.92250  Biso   1.000  H
  C61      1.0000 0.35540  0.82710  0.68060  Biso   1.000  C
  C62      1.0000 0.38480  0.78830  0.68560  Biso   1.000  C
  H44      1.0000 0.40950  0.78460  0.70560  Biso   1.000  H
  C63      1.0000 0.37470  0.75010  0.65720  Biso   1.000  C
  H45      1.0000 0.38820  0.71640  0.67010  Biso   1.000  H
  C64      1.0000 0.47700  0.92300  0.68600  Biso   1.000  C
  C65      1.0000 0.45300  0.94200  0.65200  Biso   1.000  C
  H46      1.0000 0.41790  0.93980  0.64560  Biso   1.000  H
  C66      1.0000 0.47800  0.96800  0.61300  Biso   1.000  C
  H47      1.0000 0.46150  0.98380  0.59160  Biso   1.000  H
  N13      1.0000 0.37670  0.96150  0.75730  Biso   1.000  N
  N14      1.0000 0.39860  0.86610  0.80970  Biso   1.000  N
  N15      1.0000 0.35360  0.86990  0.70280  Biso   1.000  N
  N16      1.0000 0.46060  0.89940  0.72320  Biso   1.000  N
  C67      1.0000 0.42700  0.88200  0.84700  Biso   1.000  C
  C68      1.0000 0.44500  0.92400  0.85400  Biso   1.000  C
  H48      1.0000 0.44180  0.94980  0.83200  Biso   1.000  H
  C69      1.0000 0.46100  0.92900  0.89700  Biso   1.000  C
  H49      1.0000 0.47520  0.95780  0.90340  Biso   1.000  H
  H50      1.0000 0.30250  0.91650  0.68160  Biso   1.000  H
  C70      1.0000 0.47470  0.89850  0.67690  Biso   1.000  C
  C71      1.0000 0.44990  0.90430  0.63530  Biso   1.000  C
  H51      1.0000 0.41760  0.90510  0.63480  Biso   1.000  H
  C72      1.0000 0.47500  0.90700  0.59400  Biso   1.000  C
  H52      1.0000 0.46070  0.91180  0.56640  Biso   1.000  H
  Co5      1.0000 0.25150  0.39650  0.10440  Biso   1.000  Co
  C73      1.0000 0.22210  0.33590  0.02320  Biso   1.000  C
  C74      1.0000 0.20100  0.30900  0.05350  Biso   1.000  C
  H53      1.0000 0.19890  0.29860  0.08230  Biso   1.000  H
  C75      1.0000 0.18000  0.26630  0.02900  Biso   1.000  C
  H54      1.0000 0.16620  0.24050  0.04020  Biso   1.000  H
  C76      1.0000 0.14800  0.40200  0.11400  Biso   1.000  C
  C77      1.0000 0.13900  0.41000  0.06900  Biso   1.000  C
  H55      1.0000 0.15560  0.41320  0.04000  Biso   1.000  H
  C78      1.0000 0.08800  0.41400  0.05400  Biso   1.000  C
  H56      1.0000 0.07750  0.41710  0.02240  Biso   1.000  H
  C79      1.0000 0.31940  0.35540  0.17290  Biso   1.000  C
  C80      1.0000 0.31440  0.38480  0.21170  Biso   1.000  C
  H57      1.0000 0.29440  0.40950  0.21540  Biso   1.000  H
  C81      1.0000 0.34280  0.37470  0.24990  Biso   1.000  C
  H58      1.0000 0.32990  0.38820  0.28360  Biso   1.000  H
  C82      1.0000 0.31400  0.47700  0.07700  Biso   1.000  C
  C83      1.0000 0.34800  0.45300  0.05800  Biso   1.000  C
  H59      1.0000 0.35440  0.41790  0.06020  Biso   1.000  H
  C84      1.0000 0.38700  0.47800  0.03200  Biso   1.000  C
  H60      1.0000 0.40840  0.46150  0.01620  Biso   1.000  H
  N17      1.0000 0.24270  0.37670  0.03850  Biso   1.000  N
  N18      1.0000 0.19030  0.39860  0.13390  Biso   1.000  N
  N19      1.0000 0.29720  0.35360  0.13010  Biso   1.000  N
  N20      1.0000 0.27680  0.46060  0.10060  Biso   1.000  N
  C85      1.0000 0.15300  0.42700  0.11800  Biso   1.000  C
  C86      1.0000 0.14600  0.44500  0.07600  Biso   1.000  C
  H61      1.0000 0.16800  0.44180  0.05020  Biso   1.000  H
  C87      1.0000 0.10300  0.46100  0.07100  Biso   1.000  C
  H62      1.0000 0.09660  0.47520  0.04220  Biso   1.000  H
  H63      1.0000 0.31840  0.30250  0.08350  Biso   1.000  H
  C88      1.0000 0.32310  0.47470  0.10150  Biso   1.000  C
  C89      1.0000 0.36470  0.44990  0.09570  Biso   1.000  C
  H64      1.0000 0.36520  0.41760  0.09490  Biso   1.000  H
  C90      1.0000 0.40600  0.47500  0.09300  Biso   1.000  C
  H65      1.0000 0.43360  0.46070  0.08820  Biso   1.000  H
  Co6      1.0000 0.25150  0.60350  0.89560  Biso   1.000  Co
  C91      1.0000 0.22210  0.66410  0.97680  Biso   1.000  C
  C92      1.0000 0.20100  0.69100  0.94650  Biso   1.000  C
  H66      1.0000 0.19890  0.70140  0.91770  Biso   1.000  H
  C93      1.0000 0.18000  0.73370  0.97100  Biso   1.000  C
  H67      1.0000 0.16620  0.75950  0.95980  Biso   1.000  H
  C94      1.0000 0.14800  0.59800  0.88600  Biso   1.000  C
  C95      1.0000 0.13900  0.59000  0.93100  Biso   1.000  C
  H68      1.0000 0.15560  0.58680  0.96000  Biso   1.000  H
  C96      1.0000 0.08800  0.58600  0.94600  Biso   1.000  C
  H69      1.0000 0.07750  0.58290  0.97760  Biso   1.000  H
  C97      1.0000 0.31940  0.64460  0.82710  Biso   1.000  C
  C98      1.0000 0.31440  0.61520  0.78830  Biso   1.000  C
  H70      1.0000 0.29440  0.59050  0.78460  Biso   1.000  H
  C99      1.0000 0.34280  0.62530  0.75010  Biso   1.000  C
  H71      1.0000 0.32990  0.61180  0.71640  Biso   1.000  H
  C100     1.0000 0.31400  0.52300  0.92300  Biso   1.000  C
  C101     1.0000 0.34800  0.54700  0.94200  Biso   1.000  C
  H72      1.0000 0.35440  0.58210  0.93980  Biso   1.000  H
  C102     1.0000 0.38700  0.52200  0.96800  Biso   1.000  C
  H73      1.0000 0.40840  0.53850  0.98380  Biso   1.000  H
  N21      1.0000 0.24270  0.62330  0.96150  Biso   1.000  N
  N22      1.0000 0.19030  0.60140  0.86610  Biso   1.000  N
  N23      1.0000 0.29720  0.64640  0.86990  Biso   1.000  N
  N24      1.0000 0.27680  0.53940  0.89940  Biso   1.000  N
  C103     1.0000 0.15300  0.57300  0.88200  Biso   1.000  C
  C104     1.0000 0.14600  0.55500  0.92400  Biso   1.000  C
  H74      1.0000 0.16800  0.55820  0.94980  Biso   1.000  H
  C105     1.0000 0.10300  0.53900  0.92900  Biso   1.000  C
  H75      1.0000 0.09660  0.52480  0.95780  Biso   1.000  H
  H76      1.0000 0.31840  0.69750  0.91650  Biso   1.000  H
  C106     1.0000 0.32310  0.52530  0.89850  Biso   1.000  C
  C107     1.0000 0.36470  0.55010  0.90430  Biso   1.000  C
  H77      1.0000 0.36520  0.58240  0.90510  Biso   1.000  H
  C108     1.0000 0.40600  0.52500  0.90700  Biso   1.000  C
  H78      1.0000 0.43360  0.53930  0.91180  Biso   1.000  H
  Co7      1.0000 0.74850  0.60350  0.10440  Biso   1.000  Co
  C109     1.0000 0.77790  0.66410  0.02320  Biso   1.000  C
  C110     1.0000 0.79900  0.69100  0.05350  Biso   1.000  C
  H79      1.0000 0.80110  0.70140  0.08230  Biso   1.000  H
  C111     1.0000 0.82000  0.73370  0.02900  Biso   1.000  C
  H80      1.0000 0.83380  0.75950  0.04020  Biso   1.000  H
  C112     1.0000 0.85200  0.59800  0.11400  Biso   1.000  C
  C113     1.0000 0.86100  0.59000  0.06900  Biso   1.000  C
  H81      1.0000 0.84440  0.58680  0.04000  Biso   1.000  H
  C114     1.0000 0.91200  0.58600  0.05400  Biso   1.000  C
  H82      1.0000 0.92250  0.58290  0.02240  Biso   1.000  H
  C115     1.0000 0.68060  0.64460  0.17290  Biso   1.000  C
  C116     1.0000 0.68560  0.61520  0.21170  Biso   1.000  C
  H83      1.0000 0.70560  0.59050  0.21540  Biso   1.000  H
  C117     1.0000 0.65720  0.62530  0.24990  Biso   1.000  C
  H84      1.0000 0.67010  0.61180  0.28360  Biso   1.000  H
  C118     1.0000 0.68600  0.52300  0.07700  Biso   1.000  C
  C119     1.0000 0.65200  0.54700  0.05800  Biso   1.000  C
  H85      1.0000 0.64560  0.58210  0.06020  Biso   1.000  H
  C120     1.0000 0.61300  0.52200  0.03200  Biso   1.000  C
  H86      1.0000 0.59160  0.53850  0.01620  Biso   1.000  H
  N25      1.0000 0.75730  0.62330  0.03850  Biso   1.000  N
  N26      1.0000 0.80970  0.60140  0.13390  Biso   1.000  N
  N27      1.0000 0.70280  0.64640  0.13010  Biso   1.000  N
  N28      1.0000 0.72320  0.53940  0.10060  Biso   1.000  N
  C121     1.0000 0.84700  0.57300  0.11800  Biso   1.000  C
  C122     1.0000 0.85400  0.55500  0.07600  Biso   1.000  C
  H87      1.0000 0.83200  0.55820  0.05020  Biso   1.000  H
  C123     1.0000 0.89700  0.53900  0.07100  Biso   1.000  C
  H88      1.0000 0.90340  0.52480  0.04220  Biso   1.000  H
  H89      1.0000 0.68160  0.69750  0.08350  Biso   1.000  H
  C124     1.0000 0.67690  0.52530  0.10150  Biso   1.000  C
  C125     1.0000 0.63530  0.55010  0.09570  Biso   1.000  C
  H90      1.0000 0.63480  0.58240  0.09490  Biso   1.000  H
  C126     1.0000 0.59400  0.52500  0.09300  Biso   1.000  C
  H91      1.0000 0.56640  0.53930  0.08820  Biso   1.000  H
  Co8      1.0000 0.74850  0.39650  0.89560  Biso   1.000  Co
  C127     1.0000 0.77790  0.33590  0.97680  Biso   1.000  C
  C128     1.0000 0.79900  0.30900  0.94650  Biso   1.000  C
  H92      1.0000 0.80110  0.29860  0.91770  Biso   1.000  H
  C129     1.0000 0.82000  0.26630  0.97100  Biso   1.000  C
  H93      1.0000 0.83380  0.24050  0.95980  Biso   1.000  H
  C130     1.0000 0.85200  0.40200  0.88600  Biso   1.000  C
  C131     1.0000 0.86100  0.41000  0.93100  Biso   1.000  C
  H94      1.0000 0.84440  0.41320  0.96000  Biso   1.000  H
  C132     1.0000 0.91200  0.41400  0.94600  Biso   1.000  C
  H95      1.0000 0.92250  0.41710  0.97760  Biso   1.000  H
  C133     1.0000 0.68060  0.35540  0.82710  Biso   1.000  C
  C134     1.0000 0.68560  0.38480  0.78830  Biso   1.000  C
  H96      1.0000 0.70560  0.40950  0.78460  Biso   1.000  H
  C135     1.0000 0.65720  0.37470  0.75010  Biso   1.000  C
  H97      1.0000 0.67010  0.38820  0.71640  Biso   1.000  H
  C136     1.0000 0.68600  0.47700  0.92300  Biso   1.000  C
  C137     1.0000 0.65200  0.45300  0.94200  Biso   1.000  C
  H98      1.0000 0.64560  0.41790  0.93980  Biso   1.000  H
  C138     1.0000 0.61300  0.47800  0.96800  Biso   1.000  C
  H99      1.0000 0.59160  0.46150  0.98380  Biso   1.000  H
  N29      1.0000 0.75730  0.37670  0.96150  Biso   1.000  N
  N30      1.0000 0.80970  0.39860  0.86610  Biso   1.000  N
  N31      1.0000 0.70280  0.35360  0.86990  Biso   1.000  N
  N32      1.0000 0.72320  0.46060  0.89940  Biso   1.000  N
  C139     1.0000 0.84700  0.42700  0.88200  Biso   1.000  C
  C140     1.0000 0.85400  0.44500  0.92400  Biso   1.000  C
  H100     1.0000 0.83200  0.44180  0.94980  Biso   1.000  H
  C141     1.0000 0.89700  0.46100  0.92900  Biso   1.000  C
  H101     1.0000 0.90340  0.47520  0.95780  Biso   1.000  H
  H102     1.0000 0.68160  0.30250  0.91650  Biso   1.000  H
  C142     1.0000 0.67690  0.47470  0.89850  Biso   1.000  C
  C143     1.0000 0.63530  0.44990  0.90430  Biso   1.000  C
  H103     1.0000 0.63480  0.41760  0.90510  Biso   1.000  H
  C144     1.0000 0.59400  0.47500  0.90700  Biso   1.000  C
  H104     1.0000 0.56640  0.46070  0.91180  Biso   1.000  H
  Co9      1.0000 0.10440  0.25150  0.39650  Biso   1.000  Co
  C145     1.0000 0.02320  0.22210  0.33590  Biso   1.000  C
  C146     1.0000 0.05350  0.20100  0.30900  Biso   1.000  C
  H105     1.0000 0.08230  0.19890  0.29860  Biso   1.000  H
  C147     1.0000 0.02900  0.18000  0.26630  Biso   1.000  C
  H106     1.0000 0.04020  0.16620  0.24050  Biso   1.000  H
  C148     1.0000 0.11400  0.14800  0.40200  Biso   1.000  C
  C149     1.0000 0.06900  0.13900  0.41000  Biso   1.000  C
  H107     1.0000 0.04000  0.15560  0.41320  Biso   1.000  H
  C150     1.0000 0.05400  0.08800  0.41400  Biso   1.000  C
  H108     1.0000 0.02240  0.07750  0.41710  Biso   1.000  H
  C151     1.0000 0.17290  0.31940  0.35540  Biso   1.000  C
  C152     1.0000 0.21170  0.31440  0.38480  Biso   1.000  C
  H109     1.0000 0.21540  0.29440  0.40950  Biso   1.000  H
  C153     1.0000 0.24990  0.34280  0.37470  Biso   1.000  C
  H110     1.0000 0.28360  0.32990  0.38820  Biso   1.000  H
  C154     1.0000 0.07700  0.31400  0.47700  Biso   1.000  C
  C155     1.0000 0.05800  0.34800  0.45300  Biso   1.000  C
  H111     1.0000 0.06020  0.35440  0.41790  Biso   1.000  H
  C156     1.0000 0.03200  0.38700  0.47800  Biso   1.000  C
  H112     1.0000 0.01620  0.40840  0.46150  Biso   1.000  H
  N33      1.0000 0.03850  0.24270  0.37670  Biso   1.000  N
  N34      1.0000 0.13390  0.19030  0.39860  Biso   1.000  N
  N35      1.0000 0.13010  0.29720  0.35360  Biso   1.000  N
  N36      1.0000 0.10060  0.27680  0.46060  Biso   1.000  N
  C157     1.0000 0.11800  0.15300  0.42700  Biso   1.000  C
  C158     1.0000 0.07600  0.14600  0.44500  Biso   1.000  C
  H113     1.0000 0.05020  0.16800  0.44180  Biso   1.000  H
  C159     1.0000 0.07100  0.10300  0.46100  Biso   1.000  C
  H114     1.0000 0.04220  0.09660  0.47520  Biso   1.000  H
  H115     1.0000 0.08350  0.31840  0.30250  Biso   1.000  H
  C160     1.0000 0.10150  0.32310  0.47470  Biso   1.000  C
  C161     1.0000 0.09570  0.36470  0.44990  Biso   1.000  C
  H116     1.0000 0.09490  0.36520  0.41760  Biso   1.000  H
  C162     1.0000 0.09300  0.40600  0.47500  Biso   1.000  C
  H117     1.0000 0.08820  0.43360  0.46070  Biso   1.000  H
  Co10     1.0000 0.89560  0.25150  0.60350  Biso   1.000  Co
  C163     1.0000 0.97680  0.22210  0.66410  Biso   1.000  C
  C164     1.0000 0.94650  0.20100  0.69100  Biso   1.000  C
  H118     1.0000 0.91770  0.19890  0.70140  Biso   1.000  H
  C165     1.0000 0.97100  0.18000  0.73370  Biso   1.000  C
  H119     1.0000 0.95980  0.16620  0.75950  Biso   1.000  H
  C166     1.0000 0.88600  0.14800  0.59800  Biso   1.000  C
  C167     1.0000 0.93100  0.13900  0.59000  Biso   1.000  C
  H120     1.0000 0.96000  0.15560  0.58680  Biso   1.000  H
  C168     1.0000 0.94600  0.08800  0.58600  Biso   1.000  C
  H121     1.0000 0.97760  0.07750  0.58290  Biso   1.000  H
  C169     1.0000 0.82710  0.31940  0.64460  Biso   1.000  C
  C170     1.0000 0.78830  0.31440  0.61520  Biso   1.000  C
  H122     1.0000 0.78460  0.29440  0.59050  Biso   1.000  H
  C171     1.0000 0.75010  0.34280  0.62530  Biso   1.000  C
  H123     1.0000 0.71640  0.32990  0.61180  Biso   1.000  H
  C172     1.0000 0.92300  0.31400  0.52300  Biso   1.000  C
  C173     1.0000 0.94200  0.34800  0.54700  Biso   1.000  C
  H124     1.0000 0.93980  0.35440  0.58210  Biso   1.000  H
  C174     1.0000 0.96800  0.38700  0.52200  Biso   1.000  C
  H125     1.0000 0.98380  0.40840  0.53850  Biso   1.000  H
  N37      1.0000 0.96150  0.24270  0.62330  Biso   1.000  N
  N38      1.0000 0.86610  0.19030  0.60140  Biso   1.000  N
  N39      1.0000 0.86990  0.29720  0.64640  Biso   1.000  N
  N40      1.0000 0.89940  0.27680  0.53940  Biso   1.000  N
  C175     1.0000 0.88200  0.15300  0.57300  Biso   1.000  C
  C176     1.0000 0.92400  0.14600  0.55500  Biso   1.000  C
  H126     1.0000 0.94980  0.16800  0.55820  Biso   1.000  H
  C177     1.0000 0.92900  0.10300  0.53900  Biso   1.000  C
  H127     1.0000 0.95780  0.09660  0.52480  Biso   1.000  H
  H128     1.0000 0.91650  0.31840  0.69750  Biso   1.000  H
  C178     1.0000 0.89850  0.32310  0.52530  Biso   1.000  C
  C179     1.0000 0.90430  0.36470  0.55010  Biso   1.000  C
  H129     1.0000 0.90510  0.36520  0.58240  Biso   1.000  H
  C180     1.0000 0.90700  0.40600  0.52500  Biso   1.000  C
  H130     1.0000 0.91180  0.43360  0.53930  Biso   1.000  H
  Co11     1.0000 0.10440  0.74850  0.60350  Biso   1.000  Co
  C181     1.0000 0.02320  0.77790  0.66410  Biso   1.000  C
  C182     1.0000 0.05350  0.79900  0.69100  Biso   1.000  C
  H131     1.0000 0.08230  0.80110  0.70140  Biso   1.000  H
  C183     1.0000 0.02900  0.82000  0.73370  Biso   1.000  C
  H132     1.0000 0.04020  0.83380  0.75950  Biso   1.000  H
  C184     1.0000 0.11400  0.85200  0.59800  Biso   1.000  C
  C185     1.0000 0.06900  0.86100  0.59000  Biso   1.000  C
  H133     1.0000 0.04000  0.84440  0.58680  Biso   1.000  H
  C186     1.0000 0.05400  0.91200  0.58600  Biso   1.000  C
  H134     1.0000 0.02240  0.92250  0.58290  Biso   1.000  H
  C187     1.0000 0.17290  0.68060  0.64460  Biso   1.000  C
  C188     1.0000 0.21170  0.68560  0.61520  Biso   1.000  C
  H135     1.0000 0.21540  0.70560  0.59050  Biso   1.000  H
  C189     1.0000 0.24990  0.65720  0.62530  Biso   1.000  C
  H136     1.0000 0.28360  0.67010  0.61180  Biso   1.000  H
  C190     1.0000 0.07700  0.68600  0.52300  Biso   1.000  C
  C191     1.0000 0.05800  0.65200  0.54700  Biso   1.000  C
  H137     1.0000 0.06020  0.64560  0.58210  Biso   1.000  H
  C192     1.0000 0.03200  0.61300  0.52200  Biso   1.000  C
  H138     1.0000 0.01620  0.59160  0.53850  Biso   1.000  H
  N41      1.0000 0.03850  0.75730  0.62330  Biso   1.000  N
  N42      1.0000 0.13390  0.80970  0.60140  Biso   1.000  N
  N43      1.0000 0.13010  0.70280  0.64640  Biso   1.000  N
  N44      1.0000 0.10060  0.72320  0.53940  Biso   1.000  N
  C193     1.0000 0.11800  0.84700  0.57300  Biso   1.000  C
  C194     1.0000 0.07600  0.85400  0.55500  Biso   1.000  C
  H139     1.0000 0.05020  0.83200  0.55820  Biso   1.000  H
  C195     1.0000 0.07100  0.89700  0.53900  Biso   1.000  C
  H140     1.0000 0.04220  0.90340  0.52480  Biso   1.000  H
  H141     1.0000 0.08350  0.68160  0.69750  Biso   1.000  H
  C196     1.0000 0.10150  0.67690  0.52530  Biso   1.000  C
  C197     1.0000 0.09570  0.63530  0.55010  Biso   1.000  C
  H142     1.0000 0.09490  0.63480  0.58240  Biso   1.000  H
  C198     1.0000 0.09300  0.59400  0.52500  Biso   1.000  C
  H143     1.0000 0.08820  0.56640  0.53930  Biso   1.000  H
  Co12     1.0000 0.89560  0.74850  0.39650  Biso   1.000  Co
  C199     1.0000 0.97680  0.77790  0.33590  Biso   1.000  C
  C200     1.0000 0.94650  0.79900  0.30900  Biso   1.000  C
  H144     1.0000 0.91770  0.80110  0.29860  Biso   1.000  H
  C201     1.0000 0.97100  0.82000  0.26630  Biso   1.000  C
  H145     1.0000 0.95980  0.83380  0.24050  Biso   1.000  H
  C202     1.0000 0.88600  0.85200  0.40200  Biso   1.000  C
  C203     1.0000 0.93100  0.86100  0.41000  Biso   1.000  C
  H146     1.0000 0.96000  0.84440  0.41320  Biso   1.000  H
  C204     1.0000 0.94600  0.91200  0.41400  Biso   1.000  C
  H147     1.0000 0.97760  0.92250  0.41710  Biso   1.000  H
  C205     1.0000 0.82710  0.68060  0.35540  Biso   1.000  C
  C206     1.0000 0.78830  0.68560  0.38480  Biso   1.000  C
  H148     1.0000 0.78460  0.70560  0.40950  Biso   1.000  H
  C207     1.0000 0.75010  0.65720  0.37470  Biso   1.000  C
  H149     1.0000 0.71640  0.67010  0.38820  Biso   1.000  H
  C208     1.0000 0.92300  0.68600  0.47700  Biso   1.000  C
  C209     1.0000 0.94200  0.65200  0.45300  Biso   1.000  C
  H150     1.0000 0.93980  0.64560  0.41790  Biso   1.000  H
  C210     1.0000 0.96800  0.61300  0.47800  Biso   1.000  C
  H151     1.0000 0.98380  0.59160  0.46150  Biso   1.000  H
  N45      1.0000 0.96150  0.75730  0.37670  Biso   1.000  N
  N46      1.0000 0.86610  0.80970  0.39860  Biso   1.000  N
  N47      1.0000 0.86990  0.70280  0.35360  Biso   1.000  N
  N48      1.0000 0.89940  0.72320  0.46060  Biso   1.000  N
  C211     1.0000 0.88200  0.84700  0.42700  Biso   1.000  C
  C212     1.0000 0.92400  0.85400  0.44500  Biso   1.000  C
  H152     1.0000 0.94980  0.83200  0.44180  Biso   1.000  H
  C213     1.0000 0.92900  0.89700  0.46100  Biso   1.000  C
  H153     1.0000 0.95780  0.90340  0.47520  Biso   1.000  H
  H154     1.0000 0.91650  0.68160  0.30250  Biso   1.000  H
  C214     1.0000 0.89850  0.67690  0.47470  Biso   1.000  C
  C215     1.0000 0.90430  0.63530  0.44990  Biso   1.000  C
  H155     1.0000 0.90510  0.63480  0.41760  Biso   1.000  H
  C216     1.0000 0.90700  0.59400  0.47500  Biso   1.000  C
  H156     1.0000 0.91180  0.56640  0.46070  Biso   1.000  H
  Co13     1.0000 0.10440  0.39650  0.74850  Biso   1.000  Co
  C217     1.0000 0.02320  0.33590  0.77790  Biso   1.000  C
  C218     1.0000 0.05350  0.30900  0.79900  Biso   1.000  C
  H157     1.0000 0.08230  0.29860  0.80110  Biso   1.000  H
  C219     1.0000 0.02900  0.26630  0.82000  Biso   1.000  C
  H158     1.0000 0.04020  0.24050  0.83380  Biso   1.000  H
  C220     1.0000 0.11400  0.40200  0.85200  Biso   1.000  C
  C221     1.0000 0.06900  0.41000  0.86100  Biso   1.000  C
  H159     1.0000 0.04000  0.41320  0.84440  Biso   1.000  H
  C222     1.0000 0.05400  0.41400  0.91200  Biso   1.000  C
  H160     1.0000 0.02240  0.41710  0.92250  Biso   1.000  H
  C223     1.0000 0.17290  0.35540  0.68060  Biso   1.000  C
  C224     1.0000 0.21170  0.38480  0.68560  Biso   1.000  C
  H161     1.0000 0.21540  0.40950  0.70560  Biso   1.000  H
  C225     1.0000 0.24990  0.37470  0.65720  Biso   1.000  C
  H162     1.0000 0.28360  0.38820  0.67010  Biso   1.000  H
  C226     1.0000 0.07700  0.47700  0.68600  Biso   1.000  C
  C227     1.0000 0.05800  0.45300  0.65200  Biso   1.000  C
  H163     1.0000 0.06020  0.41790  0.64560  Biso   1.000  H
  C228     1.0000 0.03200  0.47800  0.61300  Biso   1.000  C
  H164     1.0000 0.01620  0.46150  0.59160  Biso   1.000  H
  N49      1.0000 0.03850  0.37670  0.75730  Biso   1.000  N
  N50      1.0000 0.13390  0.39860  0.80970  Biso   1.000  N
  N51      1.0000 0.13010  0.35360  0.70280  Biso   1.000  N
  N52      1.0000 0.10060  0.46060  0.72320  Biso   1.000  N
  C229     1.0000 0.11800  0.42700  0.84700  Biso   1.000  C
  C230     1.0000 0.07600  0.44500  0.85400  Biso   1.000  C
  H165     1.0000 0.05020  0.44180  0.83200  Biso   1.000  H
  C231     1.0000 0.07100  0.46100  0.89700  Biso   1.000  C
  H166     1.0000 0.04220  0.47520  0.90340  Biso   1.000  H
  H167     1.0000 0.08350  0.30250  0.68160  Biso   1.000  H
  C232     1.0000 0.10150  0.47470  0.67690  Biso   1.000  C
  C233     1.0000 0.09570  0.44990  0.63530  Biso   1.000  C
  H168     1.0000 0.09490  0.41760  0.63480  Biso   1.000  H
  C234     1.0000 0.09300  0.47500  0.59400  Biso   1.000  C
  H169     1.0000 0.08820  0.46070  0.56640  Biso   1.000  H
  Co14     1.0000 0.89560  0.60350  0.74850  Biso   1.000  Co
  C235     1.0000 0.97680  0.66410  0.77790  Biso   1.000  C
  C236     1.0000 0.94650  0.69100  0.79900  Biso   1.000  C
  H170     1.0000 0.91770  0.70140  0.80110  Biso   1.000  H
  C237     1.0000 0.97100  0.73370  0.82000  Biso   1.000  C
  H171     1.0000 0.95980  0.75950  0.83380  Biso   1.000  H
  C238     1.0000 0.88600  0.59800  0.85200  Biso   1.000  C
  C239     1.0000 0.93100  0.59000  0.86100  Biso   1.000  C
  H172     1.0000 0.96000  0.58680  0.84440  Biso   1.000  H
  C240     1.0000 0.94600  0.58600  0.91200  Biso   1.000  C
  H173     1.0000 0.97760  0.58290  0.92250  Biso   1.000  H
  C241     1.0000 0.82710  0.64460  0.68060  Biso   1.000  C
  C242     1.0000 0.78830  0.61520  0.68560  Biso   1.000  C
  H174     1.0000 0.78460  0.59050  0.70560  Biso   1.000  H
  C243     1.0000 0.75010  0.62530  0.65720  Biso   1.000  C
  H175     1.0000 0.71640  0.61180  0.67010  Biso   1.000  H
  C244     1.0000 0.92300  0.52300  0.68600  Biso   1.000  C
  C245     1.0000 0.94200  0.54700  0.65200  Biso   1.000  C
  H176     1.0000 0.93980  0.58210  0.64560  Biso   1.000  H
  C246     1.0000 0.96800  0.52200  0.61300  Biso   1.000  C
  H177     1.0000 0.98380  0.53850  0.59160  Biso   1.000  H
  N53      1.0000 0.96150  0.62330  0.75730  Biso   1.000  N
  N54      1.0000 0.86610  0.60140  0.80970  Biso   1.000  N
  N55      1.0000 0.86990  0.64640  0.70280  Biso   1.000  N
  N56      1.0000 0.89940  0.53940  0.72320  Biso   1.000  N
  C247     1.0000 0.88200  0.57300  0.84700  Biso   1.000  C
  C248     1.0000 0.92400  0.55500  0.85400  Biso   1.000  C
  H178     1.0000 0.94980  0.55820  0.83200  Biso   1.000  H
  C249     1.0000 0.92900  0.53900  0.89700  Biso   1.000  C
  H179     1.0000 0.95780  0.52480  0.90340  Biso   1.000  H
  H180     1.0000 0.91650  0.69750  0.68160  Biso   1.000  H
  C250     1.0000 0.89850  0.52530  0.67690  Biso   1.000  C
  C251     1.0000 0.90430  0.55010  0.63530  Biso   1.000  C
  H181     1.0000 0.90510  0.58240  0.63480  Biso   1.000  H
  C252     1.0000 0.90700  0.52500  0.59400  Biso   1.000  C
  H182     1.0000 0.91180  0.53930  0.56640  Biso   1.000  H
  Co15     1.0000 0.10440  0.60350  0.25150  Biso   1.000  Co
  C253     1.0000 0.02320  0.66410  0.22210  Biso   1.000  C
  C254     1.0000 0.05350  0.69100  0.20100  Biso   1.000  C
  H183     1.0000 0.08230  0.70140  0.19890  Biso   1.000  H
  C255     1.0000 0.02900  0.73370  0.18000  Biso   1.000  C
  H184     1.0000 0.04020  0.75950  0.16620  Biso   1.000  H
  C256     1.0000 0.11400  0.59800  0.14800  Biso   1.000  C
  C257     1.0000 0.06900  0.59000  0.13900  Biso   1.000  C
  H185     1.0000 0.04000  0.58680  0.15560  Biso   1.000  H
  C258     1.0000 0.05400  0.58600  0.08800  Biso   1.000  C
  H186     1.0000 0.02240  0.58290  0.07750  Biso   1.000  H
  C259     1.0000 0.17290  0.64460  0.31940  Biso   1.000  C
  C260     1.0000 0.21170  0.61520  0.31440  Biso   1.000  C
  H187     1.0000 0.21540  0.59050  0.29440  Biso   1.000  H
  C261     1.0000 0.24990  0.62530  0.34280  Biso   1.000  C
  H188     1.0000 0.28360  0.61180  0.32990  Biso   1.000  H
  C262     1.0000 0.07700  0.52300  0.31400  Biso   1.000  C
  C263     1.0000 0.05800  0.54700  0.34800  Biso   1.000  C
  H189     1.0000 0.06020  0.58210  0.35440  Biso   1.000  H
  C264     1.0000 0.03200  0.52200  0.38700  Biso   1.000  C
  H190     1.0000 0.01620  0.53850  0.40840  Biso   1.000  H
  N57      1.0000 0.03850  0.62330  0.24270  Biso   1.000  N
  N58      1.0000 0.13390  0.60140  0.19030  Biso   1.000  N
  N59      1.0000 0.13010  0.64640  0.29720  Biso   1.000  N
  N60      1.0000 0.10060  0.53940  0.27680  Biso   1.000  N
  C265     1.0000 0.11800  0.57300  0.15300  Biso   1.000  C
  C266     1.0000 0.07600  0.55500  0.14600  Biso   1.000  C
  H191     1.0000 0.05020  0.55820  0.16800  Biso   1.000  H
  C267     1.0000 0.07100  0.53900  0.10300  Biso   1.000  C
  H192     1.0000 0.04220  0.52480  0.09660  Biso   1.000  H
  H193     1.0000 0.08350  0.69750  0.31840  Biso   1.000  H
  C268     1.0000 0.10150  0.52530  0.32310  Biso   1.000  C
  C269     1.0000 0.09570  0.55010  0.36470  Biso   1.000  C
  H194     1.0000 0.09490  0.58240  0.36520  Biso   1.000  H
  C270     1.0000 0.09300  0.52500  0.40600  Biso   1.000  C
  H195     1.0000 0.08820  0.53930  0.43360  Biso   1.000  H
  Co16     1.0000 0.89560  0.39650  0.25150  Biso   1.000  Co
  C271     1.0000 0.97680  0.33590  0.22210  Biso   1.000  C
  C272     1.0000 0.94650  0.30900  0.20100  Biso   1.000  C
  H196     1.0000 0.91770  0.29860  0.19890  Biso   1.000  H
  C273     1.0000 0.97100  0.26630  0.18000  Biso   1.000  C
  H197     1.0000 0.95980  0.24050  0.16620  Biso   1.000  H
  C274     1.0000 0.88600  0.40200  0.14800  Biso   1.000  C
  C275     1.0000 0.93100  0.41000  0.13900  Biso   1.000  C
  H198     1.0000 0.96000  0.41320  0.15560  Biso   1.000  H
  C276     1.0000 0.94600  0.41400  0.08800  Biso   1.000  C
  H199     1.0000 0.97760  0.41710  0.07750  Biso   1.000  H
  C277     1.0000 0.82710  0.35540  0.31940  Biso   1.000  C
  C278     1.0000 0.78830  0.38480  0.31440  Biso   1.000  C
  H200     1.0000 0.78460  0.40950  0.29440  Biso   1.000  H
  C279     1.0000 0.75010  0.37470  0.34280  Biso   1.000  C
  H201     1.0000 0.71640  0.38820  0.32990  Biso   1.000  H
  C280     1.0000 0.92300  0.47700  0.31400  Biso   1.000  C
  C281     1.0000 0.94200  0.45300  0.34800  Biso   1.000  C
  H202     1.0000 0.93980  0.41790  0.35440  Biso   1.000  H
  C282     1.0000 0.96800  0.47800  0.38700  Biso   1.000  C
  H203     1.0000 0.98380  0.46150  0.40840  Biso   1.000  H
  N61      1.0000 0.96150  0.37670  0.24270  Biso   1.000  N
  N62      1.0000 0.86610  0.39860  0.19030  Biso   1.000  N
  N63      1.0000 0.86990  0.35360  0.29720  Biso   1.000  N
  N64      1.0000 0.89940  0.46060  0.27680  Biso   1.000  N
  C283     1.0000 0.88200  0.42700  0.15300  Biso   1.000  C
  C284     1.0000 0.92400  0.44500  0.14600  Biso   1.000  C
  H204     1.0000 0.94980  0.44180  0.16800  Biso   1.000  H
  C285     1.0000 0.92900  0.46100  0.10300  Biso   1.000  C
  H205     1.0000 0.95780  0.47520  0.09660  Biso   1.000  H
  H206     1.0000 0.91650  0.30250  0.31840  Biso   1.000  H
  C286     1.0000 0.89850  0.47470  0.32310  Biso   1.000  C
  C287     1.0000 0.90430  0.44990  0.36470  Biso   1.000  C
  H207     1.0000 0.90510  0.41760  0.36520  Biso   1.000  H
  C288     1.0000 0.90700  0.47500  0.40600  Biso   1.000  C
  H208     1.0000 0.91180  0.46070  0.43360  Biso   1.000  H
  Co17     1.0000 0.39650  0.25150  0.89560  Biso   1.000  Co
  C289     1.0000 0.33590  0.22210  0.97680  Biso   1.000  C
  C290     1.0000 0.30900  0.20100  0.94650  Biso   1.000  C
  H209     1.0000 0.29860  0.19890  0.91770  Biso   1.000  H
  C291     1.0000 0.26630  0.18000  0.97100  Biso   1.000  C
  H210     1.0000 0.24050  0.16620  0.95980  Biso   1.000  H
  C292     1.0000 0.40200  0.14800  0.88600  Biso   1.000  C
  C293     1.0000 0.41000  0.13900  0.93100  Biso   1.000  C
  H211     1.0000 0.41320  0.15560  0.96000  Biso   1.000  H
  C294     1.0000 0.41400  0.08800  0.94600  Biso   1.000  C
  H212     1.0000 0.41710  0.07750  0.97760  Biso   1.000  H
  C295     1.0000 0.35540  0.31940  0.82710  Biso   1.000  C
  C296     1.0000 0.38480  0.31440  0.78830  Biso   1.000  C
  H213     1.0000 0.40950  0.29440  0.78460  Biso   1.000  H
  C297     1.0000 0.37470  0.34280  0.75010  Biso   1.000  C
  H214     1.0000 0.38820  0.32990  0.71640  Biso   1.000  H
  C298     1.0000 0.47700  0.31400  0.92300  Biso   1.000  C
  C299     1.0000 0.45300  0.34800  0.94200  Biso   1.000  C
  H215     1.0000 0.41790  0.35440  0.93980  Biso   1.000  H
  C300     1.0000 0.47800  0.38700  0.96800  Biso   1.000  C
  H216     1.0000 0.46150  0.40840  0.98380  Biso   1.000  H
  N65      1.0000 0.37670  0.24270  0.96150  Biso   1.000  N
  N66      1.0000 0.39860  0.19030  0.86610  Biso   1.000  N
  N67      1.0000 0.35360  0.29720  0.86990  Biso   1.000  N
  N68      1.0000 0.46060  0.27680  0.89940  Biso   1.000  N
  C301     1.0000 0.42700  0.15300  0.88200  Biso   1.000  C
  C302     1.0000 0.44500  0.14600  0.92400  Biso   1.000  C
  H217     1.0000 0.44180  0.16800  0.94980  Biso   1.000  H
  C303     1.0000 0.46100  0.10300  0.92900  Biso   1.000  C
  H218     1.0000 0.47520  0.09660  0.95780  Biso   1.000  H
  H219     1.0000 0.30250  0.31840  0.91650  Biso   1.000  H
  C304     1.0000 0.47470  0.32310  0.89850  Biso   1.000  C
  C305     1.0000 0.44990  0.36470  0.90430  Biso   1.000  C
  H220     1.0000 0.41760  0.36520  0.90510  Biso   1.000  H
  C306     1.0000 0.47500  0.40600  0.90700  Biso   1.000  C
  H221     1.0000 0.46070  0.43360  0.91180  Biso   1.000  H
  Co18     1.0000 0.60350  0.25150  0.10440  Biso   1.000  Co
  C307     1.0000 0.66410  0.22210  0.02320  Biso   1.000  C
  C308     1.0000 0.69100  0.20100  0.05350  Biso   1.000  C
  H222     1.0000 0.70140  0.19890  0.08230  Biso   1.000  H
  C309     1.0000 0.73370  0.18000  0.02900  Biso   1.000  C
  H223     1.0000 0.75950  0.16620  0.04020  Biso   1.000  H
  C310     1.0000 0.59800  0.14800  0.11400  Biso   1.000  C
  C311     1.0000 0.59000  0.13900  0.06900  Biso   1.000  C
  H224     1.0000 0.58680  0.15560  0.04000  Biso   1.000  H
  C312     1.0000 0.58600  0.08800  0.05400  Biso   1.000  C
  H225     1.0000 0.58290  0.07750  0.02240  Biso   1.000  H
  C313     1.0000 0.64460  0.31940  0.17290  Biso   1.000  C
  C314     1.0000 0.61520  0.31440  0.21170  Biso   1.000  C
  H226     1.0000 0.59050  0.29440  0.21540  Biso   1.000  H
  C315     1.0000 0.62530  0.34280  0.24990  Biso   1.000  C
  H227     1.0000 0.61180  0.32990  0.28360  Biso   1.000  H
  C316     1.0000 0.52300  0.31400  0.07700  Biso   1.000  C
  C317     1.0000 0.54700  0.34800  0.05800  Biso   1.000  C
  H228     1.0000 0.58210  0.35440  0.06020  Biso   1.000  H
  C318     1.0000 0.52200  0.38700  0.03200  Biso   1.000  C
  H229     1.0000 0.53850  0.40840  0.01620  Biso   1.000  H
  N69      1.0000 0.62330  0.24270  0.03850  Biso   1.000  N
  N70      1.0000 0.60140  0.19030  0.13390  Biso   1.000  N
  N71      1.0000 0.64640  0.29720  0.13010  Biso   1.000  N
  N72      1.0000 0.53940  0.27680  0.10060  Biso   1.000  N
  C319     1.0000 0.57300  0.15300  0.11800  Biso   1.000  C
  C320     1.0000 0.55500  0.14600  0.07600  Biso   1.000  C
  H230     1.0000 0.55820  0.16800  0.05020  Biso   1.000  H
  C321     1.0000 0.53900  0.10300  0.07100  Biso   1.000  C
  H231     1.0000 0.52480  0.09660  0.04220  Biso   1.000  H
  H232     1.0000 0.69750  0.31840  0.08350  Biso   1.000  H
  C322     1.0000 0.52530  0.32310  0.10150  Biso   1.000  C
  C323     1.0000 0.55010  0.36470  0.09570  Biso   1.000  C
  H233     1.0000 0.58240  0.36520  0.09490  Biso   1.000  H
  C324     1.0000 0.52500  0.40600  0.09300  Biso   1.000  C
  H234     1.0000 0.53930  0.43360  0.08820  Biso   1.000  H
  Co19     1.0000 0.60350  0.74850  0.89560  Biso   1.000  Co
  C325     1.0000 0.66410  0.77790  0.97680  Biso   1.000  C
  C326     1.0000 0.69100  0.79900  0.94650  Biso   1.000  C
  H235     1.0000 0.70140  0.80110  0.91770  Biso   1.000  H
  C327     1.0000 0.73370  0.82000  0.97100  Biso   1.000  C
  H236     1.0000 0.75950  0.83380  0.95980  Biso   1.000  H
  C328     1.0000 0.59800  0.85200  0.88600  Biso   1.000  C
  C329     1.0000 0.59000  0.86100  0.93100  Biso   1.000  C
  H237     1.0000 0.58680  0.84440  0.96000  Biso   1.000  H
  C330     1.0000 0.58600  0.91200  0.94600  Biso   1.000  C
  H238     1.0000 0.58290  0.92250  0.97760  Biso   1.000  H
  C331     1.0000 0.64460  0.68060  0.82710  Biso   1.000  C
  C332     1.0000 0.61520  0.68560  0.78830  Biso   1.000  C
  H239     1.0000 0.59050  0.70560  0.78460  Biso   1.000  H
  C333     1.0000 0.62530  0.65720  0.75010  Biso   1.000  C
  H240     1.0000 0.61180  0.67010  0.71640  Biso   1.000  H
  C334     1.0000 0.52300  0.68600  0.92300  Biso   1.000  C
  C335     1.0000 0.54700  0.65200  0.94200  Biso   1.000  C
  H241     1.0000 0.58210  0.64560  0.93980  Biso   1.000  H
  C336     1.0000 0.52200  0.61300  0.96800  Biso   1.000  C
  H242     1.0000 0.53850  0.59160  0.98380  Biso   1.000  H
  N73      1.0000 0.62330  0.75730  0.96150  Biso   1.000  N
  N74      1.0000 0.60140  0.80970  0.86610  Biso   1.000  N
  N75      1.0000 0.64640  0.70280  0.86990  Biso   1.000  N
  N76      1.0000 0.53940  0.72320  0.89940  Biso   1.000  N
  C337     1.0000 0.57300  0.84700  0.88200  Biso   1.000  C
  C338     1.0000 0.55500  0.85400  0.92400  Biso   1.000  C
  H243     1.0000 0.55820  0.83200  0.94980  Biso   1.000  H
  C339     1.0000 0.53900  0.89700  0.92900  Biso   1.000  C
  H244     1.0000 0.52480  0.90340  0.95780  Biso   1.000  H
  H245     1.0000 0.69750  0.68160  0.91650  Biso   1.000  H
  C340     1.0000 0.52530  0.67690  0.89850  Biso   1.000  C
  C341     1.0000 0.55010  0.63530  0.90430  Biso   1.000  C
  H246     1.0000 0.58240  0.63480  0.90510  Biso   1.000  H
  C342     1.0000 0.52500  0.59400  0.90700  Biso   1.000  C
  H247     1.0000 0.53930  0.56640  0.91180  Biso   1.000  H
  Co20     1.0000 0.39650  0.74850  0.10440  Biso   1.000  Co
  C343     1.0000 0.33590  0.77790  0.02320  Biso   1.000  C
  C344     1.0000 0.30900  0.79900  0.05350  Biso   1.000  C
  H248     1.0000 0.29860  0.80110  0.08230  Biso   1.000  H
  C345     1.0000 0.26630  0.82000  0.02900  Biso   1.000  C
  H249     1.0000 0.24050  0.83380  0.04020  Biso   1.000  H
  C346     1.0000 0.40200  0.85200  0.11400  Biso   1.000  C
  C347     1.0000 0.41000  0.86100  0.06900  Biso   1.000  C
  H250     1.0000 0.41320  0.84440  0.04000  Biso   1.000  H
  C348     1.0000 0.41400  0.91200  0.05400  Biso   1.000  C
  H251     1.0000 0.41710  0.92250  0.02240  Biso   1.000  H
  C349     1.0000 0.35540  0.68060  0.17290  Biso   1.000  C
  C350     1.0000 0.38480  0.68560  0.21170  Biso   1.000  C
  H252     1.0000 0.40950  0.70560  0.21540  Biso   1.000  H
  C351     1.0000 0.37470  0.65720  0.24990  Biso   1.000  C
  H253     1.0000 0.38820  0.67010  0.28360  Biso   1.000  H
  C352     1.0000 0.47700  0.68600  0.07700  Biso   1.000  C
  C353     1.0000 0.45300  0.65200  0.05800  Biso   1.000  C
  H254     1.0000 0.41790  0.64560  0.06020  Biso   1.000  H
  C354     1.0000 0.47800  0.61300  0.03200  Biso   1.000  C
  H255     1.0000 0.46150  0.59160  0.01620  Biso   1.000  H
  N77      1.0000 0.37670  0.75730  0.03850  Biso   1.000  N
  N78      1.0000 0.39860  0.80970  0.13390  Biso   1.000  N
  N79      1.0000 0.35360  0.70280  0.13010  Biso   1.000  N
  N80      1.0000 0.46060  0.72320  0.10060  Biso   1.000  N
  C355     1.0000 0.42700  0.84700  0.11800  Biso   1.000  C
  C356     1.0000 0.44500  0.85400  0.07600  Biso   1.000  C
  H256     1.0000 0.44180  0.83200  0.05020  Biso   1.000  H
  C357     1.0000 0.46100  0.89700  0.07100  Biso   1.000  C
  H257     1.0000 0.47520  0.90340  0.04220  Biso   1.000  H
  H258     1.0000 0.30250  0.68160  0.08350  Biso   1.000  H
  C358     1.0000 0.47470  0.67690  0.10150  Biso   1.000  C
  C359     1.0000 0.44990  0.63530  0.09570  Biso   1.000  C
  H259     1.0000 0.41760  0.63480  0.09490  Biso   1.000  H
  C360     1.0000 0.47500  0.59400  0.09300  Biso   1.000  C
  H260     1.0000 0.46070  0.56640  0.08820  Biso   1.000  H
  Co21     1.0000 0.25150  0.10440  0.60350  Biso   1.000  Co
  C361     1.0000 0.22210  0.02320  0.66410  Biso   1.000  C
  C362     1.0000 0.20100  0.05350  0.69100  Biso   1.000  C
  H261     1.0000 0.19890  0.08230  0.70140  Biso   1.000  H
  C363     1.0000 0.18000  0.02900  0.73370  Biso   1.000  C
  H262     1.0000 0.16620  0.04020  0.75950  Biso   1.000  H
  C364     1.0000 0.14800  0.11400  0.59800  Biso   1.000  C
  C365     1.0000 0.13900  0.06900  0.59000  Biso   1.000  C
  H263     1.0000 0.15560  0.04000  0.58680  Biso   1.000  H
  C366     1.0000 0.08800  0.05400  0.58600  Biso   1.000  C
  H264     1.0000 0.07750  0.02240  0.58290  Biso   1.000  H
  C367     1.0000 0.31940  0.17290  0.64460  Biso   1.000  C
  C368     1.0000 0.31440  0.21170  0.61520  Biso   1.000  C
  H265     1.0000 0.29440  0.21540  0.59050  Biso   1.000  H
  C369     1.0000 0.34280  0.24990  0.62530  Biso   1.000  C
  H266     1.0000 0.32990  0.28360  0.61180  Biso   1.000  H
  C370     1.0000 0.31400  0.07700  0.52300  Biso   1.000  C
  C371     1.0000 0.34800  0.05800  0.54700  Biso   1.000  C
  H267     1.0000 0.35440  0.06020  0.58210  Biso   1.000  H
  C372     1.0000 0.38700  0.03200  0.52200  Biso   1.000  C
  H268     1.0000 0.40840  0.01620  0.53850  Biso   1.000  H
  N81      1.0000 0.24270  0.03850  0.62330  Biso   1.000  N
  N82      1.0000 0.19030  0.13390  0.60140  Biso   1.000  N
  N83      1.0000 0.29720  0.13010  0.64640  Biso   1.000  N
  N84      1.0000 0.27680  0.10060  0.53940  Biso   1.000  N
  C373     1.0000 0.15300  0.11800  0.57300  Biso   1.000  C
  C374     1.0000 0.14600  0.07600  0.55500  Biso   1.000  C
  H269     1.0000 0.16800  0.05020  0.55820  Biso   1.000  H
  C375     1.0000 0.10300  0.07100  0.53900  Biso   1.000  C
  H270     1.0000 0.09660  0.04220  0.52480  Biso   1.000  H
  H271     1.0000 0.31840  0.08350  0.69750  Biso   1.000  H
  C376     1.0000 0.32310  0.10150  0.52530  Biso   1.000  C
  C377     1.0000 0.36470  0.09570  0.55010  Biso   1.000  C
  H272     1.0000 0.36520  0.09490  0.58240  Biso   1.000  H
  C378     1.0000 0.40600  0.09300  0.52500  Biso   1.000  C
  H273     1.0000 0.43360  0.08820  0.53930  Biso   1.000  H
  Co22     1.0000 0.25150  0.89560  0.39650  Biso   1.000  Co
  C379     1.0000 0.22210  0.97680  0.33590  Biso   1.000  C
  C380     1.0000 0.20100  0.94650  0.30900  Biso   1.000  C
  H274     1.0000 0.19890  0.91770  0.29860  Biso   1.000  H
  C381     1.0000 0.18000  0.97100  0.26630  Biso   1.000  C
  H275     1.0000 0.16620  0.95980  0.24050  Biso   1.000  H
  C382     1.0000 0.14800  0.88600  0.40200  Biso   1.000  C
  C383     1.0000 0.13900  0.93100  0.41000  Biso   1.000  C
  H276     1.0000 0.15560  0.96000  0.41320  Biso   1.000  H
  C384     1.0000 0.08800  0.94600  0.41400  Biso   1.000  C
  H277     1.0000 0.07750  0.97760  0.41710  Biso   1.000  H
  C385     1.0000 0.31940  0.82710  0.35540  Biso   1.000  C
  C386     1.0000 0.31440  0.78830  0.38480  Biso   1.000  C
  H278     1.0000 0.29440  0.78460  0.40950  Biso   1.000  H
  C387     1.0000 0.34280  0.75010  0.37470  Biso   1.000  C
  H279     1.0000 0.32990  0.71640  0.38820  Biso   1.000  H
  C388     1.0000 0.31400  0.92300  0.47700  Biso   1.000  C
  C389     1.0000 0.34800  0.94200  0.45300  Biso   1.000  C
  H280     1.0000 0.35440  0.93980  0.41790  Biso   1.000  H
  C390     1.0000 0.38700  0.96800  0.47800  Biso   1.000  C
  H281     1.0000 0.40840  0.98380  0.46150  Biso   1.000  H
  N85      1.0000 0.24270  0.96150  0.37670  Biso   1.000  N
  N86      1.0000 0.19030  0.86610  0.39860  Biso   1.000  N
  N87      1.0000 0.29720  0.86990  0.35360  Biso   1.000  N
  N88      1.0000 0.27680  0.89940  0.46060  Biso   1.000  N
  C391     1.0000 0.15300  0.88200  0.42700  Biso   1.000  C
  C392     1.0000 0.14600  0.92400  0.44500  Biso   1.000  C
  H282     1.0000 0.16800  0.94980  0.44180  Biso   1.000  H
  C393     1.0000 0.10300  0.92900  0.46100  Biso   1.000  C
  H283     1.0000 0.09660  0.95780  0.47520  Biso   1.000  H
  H284     1.0000 0.31840  0.91650  0.30250  Biso   1.000  H
  C394     1.0000 0.32310  0.89850  0.47470  Biso   1.000  C
  C395     1.0000 0.36470  0.90430  0.44990  Biso   1.000  C
  H285     1.0000 0.36520  0.90510  0.41760  Biso   1.000  H
  C396     1.0000 0.40600  0.90700  0.47500  Biso   1.000  C
  H286     1.0000 0.43360  0.91180  0.46070  Biso   1.000  H
  Co23     1.0000 0.74850  0.10440  0.39650  Biso   1.000  Co
  C397     1.0000 0.77790  0.02320  0.33590  Biso   1.000  C
  C398     1.0000 0.79900  0.05350  0.30900  Biso   1.000  C
  H287     1.0000 0.80110  0.08230  0.29860  Biso   1.000  H
  C399     1.0000 0.82000  0.02900  0.26630  Biso   1.000  C
  H288     1.0000 0.83380  0.04020  0.24050  Biso   1.000  H
  C400     1.0000 0.85200  0.11400  0.40200  Biso   1.000  C
  C401     1.0000 0.86100  0.06900  0.41000  Biso   1.000  C
  H289     1.0000 0.84440  0.04000  0.41320  Biso   1.000  H
  C402     1.0000 0.91200  0.05400  0.41400  Biso   1.000  C
  H290     1.0000 0.92250  0.02240  0.41710  Biso   1.000  H
  C403     1.0000 0.68060  0.17290  0.35540  Biso   1.000  C
  C404     1.0000 0.68560  0.21170  0.38480  Biso   1.000  C
  H291     1.0000 0.70560  0.21540  0.40950  Biso   1.000  H
  C405     1.0000 0.65720  0.24990  0.37470  Biso   1.000  C
  H292     1.0000 0.67010  0.28360  0.38820  Biso   1.000  H
  C406     1.0000 0.68600  0.07700  0.47700  Biso   1.000  C
  C407     1.0000 0.65200  0.05800  0.45300  Biso   1.000  C
  H293     1.0000 0.64560  0.06020  0.41790  Biso   1.000  H
  C408     1.0000 0.61300  0.03200  0.47800  Biso   1.000  C
  H294     1.0000 0.59160  0.01620  0.46150  Biso   1.000  H
  N89      1.0000 0.75730  0.03850  0.37670  Biso   1.000  N
  N90      1.0000 0.80970  0.13390  0.39860  Biso   1.000  N
  N91      1.0000 0.70280  0.13010  0.35360  Biso   1.000  N
  N92      1.0000 0.72320  0.10060  0.46060  Biso   1.000  N
  C409     1.0000 0.84700  0.11800  0.42700  Biso   1.000  C
  C410     1.0000 0.85400  0.07600  0.44500  Biso   1.000  C
  H295     1.0000 0.83200  0.05020  0.44180  Biso   1.000  H
  C411     1.0000 0.89700  0.07100  0.46100  Biso   1.000  C
  H296     1.0000 0.90340  0.04220  0.47520  Biso   1.000  H
  H297     1.0000 0.68160  0.08350  0.30250  Biso   1.000  H
  C412     1.0000 0.67690  0.10150  0.47470  Biso   1.000  C
  C413     1.0000 0.63530  0.09570  0.44990  Biso   1.000  C
  H298     1.0000 0.63480  0.09490  0.41760  Biso   1.000  H
  C414     1.0000 0.59400  0.09300  0.47500  Biso   1.000  C
  H299     1.0000 0.56640  0.08820  0.46070  Biso   1.000  H
  Co24     1.0000 0.74850  0.89560  0.60350  Biso   1.000  Co
  C415     1.0000 0.77790  0.97680  0.66410  Biso   1.000  C
  C416     1.0000 0.79900  0.94650  0.69100  Biso   1.000  C
  H300     1.0000 0.80110  0.91770  0.70140  Biso   1.000  H
  C417     1.0000 0.82000  0.97100  0.73370  Biso   1.000  C
  H301     1.0000 0.83380  0.95980  0.75950  Biso   1.000  H
  C418     1.0000 0.85200  0.88600  0.59800  Biso   1.000  C
  C419     1.0000 0.86100  0.93100  0.59000  Biso   1.000  C
  H302     1.0000 0.84440  0.96000  0.58680  Biso   1.000  H
  C420     1.0000 0.91200  0.94600  0.58600  Biso   1.000  C
  H303     1.0000 0.92250  0.97760  0.58290  Biso   1.000  H
  C421     1.0000 0.68060  0.82710  0.64460  Biso   1.000  C
  C422     1.0000 0.68560  0.78830  0.61520  Biso   1.000  C
  H304     1.0000 0.70560  0.78460  0.59050  Biso   1.000  H
  C423     1.0000 0.65720  0.75010  0.62530  Biso   1.000  C
  H305     1.0000 0.67010  0.71640  0.61180  Biso   1.000  H
  C424     1.0000 0.68600  0.92300  0.52300  Biso   1.000  C
  C425     1.0000 0.65200  0.94200  0.54700  Biso   1.000  C
  H306     1.0000 0.64560  0.93980  0.58210  Biso   1.000  H
  C426     1.0000 0.61300  0.96800  0.52200  Biso   1.000  C
  H307     1.0000 0.59160  0.98380  0.53850  Biso   1.000  H
  N93      1.0000 0.75730  0.96150  0.62330  Biso   1.000  N
  N94      1.0000 0.80970  0.86610  0.60140  Biso   1.000  N
  N95      1.0000 0.70280  0.86990  0.64640  Biso   1.000  N
  N96      1.0000 0.72320  0.89940  0.53940  Biso   1.000  N
  C427     1.0000 0.84700  0.88200  0.57300  Biso   1.000  C
  C428     1.0000 0.85400  0.92400  0.55500  Biso   1.000  C
  H308     1.0000 0.83200  0.94980  0.55820  Biso   1.000  H
  C429     1.0000 0.89700  0.92900  0.53900  Biso   1.000  C
  H309     1.0000 0.90340  0.95780  0.52480  Biso   1.000  H
  H310     1.0000 0.68160  0.91650  0.69750  Biso   1.000  H
  C430     1.0000 0.67690  0.89850  0.52530  Biso   1.000  C
  C431     1.0000 0.63530  0.90430  0.55010  Biso   1.000  C
  H311     1.0000 0.63480  0.90510  0.58240  Biso   1.000  H
  C432     1.0000 0.59400  0.90700  0.52500  Biso   1.000  C
  H312     1.0000 0.56640  0.91180  0.53930  Biso   1.000  H
  Co25     1.0000 0.60350  0.89560  0.74850  Biso   1.000  Co
  C433     1.0000 0.66410  0.97680  0.77790  Biso   1.000  C
  C434     1.0000 0.69100  0.94650  0.79900  Biso   1.000  C
  H313     1.0000 0.70140  0.91770  0.80110  Biso   1.000  H
  C435     1.0000 0.73370  0.97100  0.82000  Biso   1.000  C
  H314     1.0000 0.75950  0.95980  0.83380  Biso   1.000  H
  C436     1.0000 0.59800  0.88600  0.85200  Biso   1.000  C
  C437     1.0000 0.59000  0.93100  0.86100  Biso   1.000  C
  H315     1.0000 0.58680  0.96000  0.84440  Biso   1.000  H
  C438     1.0000 0.58600  0.94600  0.91200  Biso   1.000  C
  H316     1.0000 0.58290  0.97760  0.92250  Biso   1.000  H
  C439     1.0000 0.64460  0.82710  0.68060  Biso   1.000  C
  C440     1.0000 0.61520  0.78830  0.68560  Biso   1.000  C
  H317     1.0000 0.59050  0.78460  0.70560  Biso   1.000  H
  C441     1.0000 0.62530  0.75010  0.65720  Biso   1.000  C
  H318     1.0000 0.61180  0.71640  0.67010  Biso   1.000  H
  C442     1.0000 0.52300  0.92300  0.68600  Biso   1.000  C
  C443     1.0000 0.54700  0.94200  0.65200  Biso   1.000  C
  H319     1.0000 0.58210  0.93980  0.64560  Biso   1.000  H
  C444     1.0000 0.52200  0.96800  0.61300  Biso   1.000  C
  H320     1.0000 0.53850  0.98380  0.59160  Biso   1.000  H
  N97      1.0000 0.62330  0.96150  0.75730  Biso   1.000  N
  N98      1.0000 0.60140  0.86610  0.80970  Biso   1.000  N
  N99      1.0000 0.64640  0.86990  0.70280  Biso   1.000  N
  N100     1.0000 0.53940  0.89940  0.72320  Biso   1.000  N
  C445     1.0000 0.57300  0.88200  0.84700  Biso   1.000  C
  C446     1.0000 0.55500  0.92400  0.85400  Biso   1.000  C
  H321     1.0000 0.55820  0.94980  0.83200  Biso   1.000  H
  C447     1.0000 0.53900  0.92900  0.89700  Biso   1.000  C
  H322     1.0000 0.52480  0.95780  0.90340  Biso   1.000  H
  H323     1.0000 0.69750  0.91650  0.68160  Biso   1.000  H
  C448     1.0000 0.52530  0.89850  0.67690  Biso   1.000  C
  C449     1.0000 0.55010  0.90430  0.63530  Biso   1.000  C
  H324     1.0000 0.58240  0.90510  0.63480  Biso   1.000  H
  C450     1.0000 0.52500  0.90700  0.59400  Biso   1.000  C
  H325     1.0000 0.53930  0.91180  0.56640  Biso   1.000  H
  Co26     1.0000 0.39650  0.10440  0.74850  Biso   1.000  Co
  C451     1.0000 0.33590  0.02320  0.77790  Biso   1.000  C
  C452     1.0000 0.30900  0.05350  0.79900  Biso   1.000  C
  H326     1.0000 0.29860  0.08230  0.80110  Biso   1.000  H
  C453     1.0000 0.26630  0.02900  0.82000  Biso   1.000  C
  H327     1.0000 0.24050  0.04020  0.83380  Biso   1.000  H
  C454     1.0000 0.40200  0.11400  0.85200  Biso   1.000  C
  C455     1.0000 0.41000  0.06900  0.86100  Biso   1.000  C
  H328     1.0000 0.41320  0.04000  0.84440  Biso   1.000  H
  C456     1.0000 0.41400  0.05400  0.91200  Biso   1.000  C
  H329     1.0000 0.41710  0.02240  0.92250  Biso   1.000  H
  C457     1.0000 0.35540  0.17290  0.68060  Biso   1.000  C
  C458     1.0000 0.38480  0.21170  0.68560  Biso   1.000  C
  H330     1.0000 0.40950  0.21540  0.70560  Biso   1.000  H
  C459     1.0000 0.37470  0.24990  0.65720  Biso   1.000  C
  H331     1.0000 0.38820  0.28360  0.67010  Biso   1.000  H
  C460     1.0000 0.47700  0.07700  0.68600  Biso   1.000  C
  C461     1.0000 0.45300  0.05800  0.65200  Biso   1.000  C
  H332     1.0000 0.41790  0.06020  0.64560  Biso   1.000  H
  C462     1.0000 0.47800  0.03200  0.61300  Biso   1.000  C
  H333     1.0000 0.46150  0.01620  0.59160  Biso   1.000  H
  N101     1.0000 0.37670  0.03850  0.75730  Biso   1.000  N
  N102     1.0000 0.39860  0.13390  0.80970  Biso   1.000  N
  N103     1.0000 0.35360  0.13010  0.70280  Biso   1.000  N
  N104     1.0000 0.46060  0.10060  0.72320  Biso   1.000  N
  C463     1.0000 0.42700  0.11800  0.84700  Biso   1.000  C
  C464     1.0000 0.44500  0.07600  0.85400  Biso   1.000  C
  H334     1.0000 0.44180  0.05020  0.83200  Biso   1.000  H
  C465     1.0000 0.46100  0.07100  0.89700  Biso   1.000  C
  H335     1.0000 0.47520  0.04220  0.90340  Biso   1.000  H
  H336     1.0000 0.30250  0.08350  0.68160  Biso   1.000  H
  C466     1.0000 0.47470  0.10150  0.67690  Biso   1.000  C
  C467     1.0000 0.44990  0.09570  0.63530  Biso   1.000  C
  H337     1.0000 0.41760  0.09490  0.63480  Biso   1.000  H
  C468     1.0000 0.47500  0.09300  0.59400  Biso   1.000  C
  H338     1.0000 0.46070  0.08820  0.56640  Biso   1.000  H
  Co27     1.0000 0.39650  0.89560  0.25150  Biso   1.000  Co
  C469     1.0000 0.33590  0.97680  0.22210  Biso   1.000  C
  C470     1.0000 0.30900  0.94650  0.20100  Biso   1.000  C
  H339     1.0000 0.29860  0.91770  0.19890  Biso   1.000  H
  C471     1.0000 0.26630  0.97100  0.18000  Biso   1.000  C
  H340     1.0000 0.24050  0.95980  0.16620  Biso   1.000  H
  C472     1.0000 0.40200  0.88600  0.14800  Biso   1.000  C
  C473     1.0000 0.41000  0.93100  0.13900  Biso   1.000  C
  H341     1.0000 0.41320  0.96000  0.15560  Biso   1.000  H
  C474     1.0000 0.41400  0.94600  0.08800  Biso   1.000  C
  H342     1.0000 0.41710  0.97760  0.07750  Biso   1.000  H
  C475     1.0000 0.35540  0.82710  0.31940  Biso   1.000  C
  C476     1.0000 0.38480  0.78830  0.31440  Biso   1.000  C
  H343     1.0000 0.40950  0.78460  0.29440  Biso   1.000  H
  C477     1.0000 0.37470  0.75010  0.34280  Biso   1.000  C
  H344     1.0000 0.38820  0.71640  0.32990  Biso   1.000  H
  C478     1.0000 0.47700  0.92300  0.31400  Biso   1.000  C
  C479     1.0000 0.45300  0.94200  0.34800  Biso   1.000  C
  H345     1.0000 0.41790  0.93980  0.35440  Biso   1.000  H
  C480     1.0000 0.47800  0.96800  0.38700  Biso   1.000  C
  H346     1.0000 0.46150  0.98380  0.40840  Biso   1.000  H
  N105     1.0000 0.37670  0.96150  0.24270  Biso   1.000  N
  N106     1.0000 0.39860  0.86610  0.19030  Biso   1.000  N
  N107     1.0000 0.35360  0.86990  0.29720  Biso   1.000  N
  N108     1.0000 0.46060  0.89940  0.27680  Biso   1.000  N
  C481     1.0000 0.42700  0.88200  0.15300  Biso   1.000  C
  C482     1.0000 0.44500  0.92400  0.14600  Biso   1.000  C
  H347     1.0000 0.44180  0.94980  0.16800  Biso   1.000  H
  C483     1.0000 0.46100  0.92900  0.10300  Biso   1.000  C
  H348     1.0000 0.47520  0.95780  0.09660  Biso   1.000  H
  H349     1.0000 0.30250  0.91650  0.31840  Biso   1.000  H
  C484     1.0000 0.47470  0.89850  0.32310  Biso   1.000  C
  C485     1.0000 0.44990  0.90430  0.36470  Biso   1.000  C
  H350     1.0000 0.41760  0.90510  0.36520  Biso   1.000  H
  C486     1.0000 0.47500  0.90700  0.40600  Biso   1.000  C
  H351     1.0000 0.46070  0.91180  0.43360  Biso   1.000  H
  Co28     1.0000 0.60350  0.10440  0.25150  Biso   1.000  Co
  C487     1.0000 0.66410  0.02320  0.22210  Biso   1.000  C
  C488     1.0000 0.69100  0.05350  0.20100  Biso   1.000  C
  H352     1.0000 0.70140  0.08230  0.19890  Biso   1.000  H
  C489     1.0000 0.73370  0.02900  0.18000  Biso   1.000  C
  H353     1.0000 0.75950  0.04020  0.16620  Biso   1.000  H
  C490     1.0000 0.59800  0.11400  0.14800  Biso   1.000  C
  C491     1.0000 0.59000  0.06900  0.13900  Biso   1.000  C
  H354     1.0000 0.58680  0.04000  0.15560  Biso   1.000  H
  C492     1.0000 0.58600  0.05400  0.08800  Biso   1.000  C
  H355     1.0000 0.58290  0.02240  0.07750  Biso   1.000  H
  C493     1.0000 0.64460  0.17290  0.31940  Biso   1.000  C
  C494     1.0000 0.61520  0.21170  0.31440  Biso   1.000  C
  H356     1.0000 0.59050  0.21540  0.29440  Biso   1.000  H
  C495     1.0000 0.62530  0.24990  0.34280  Biso   1.000  C
  H357     1.0000 0.61180  0.28360  0.32990  Biso   1.000  H
  C496     1.0000 0.52300  0.07700  0.31400  Biso   1.000  C
  C497     1.0000 0.54700  0.05800  0.34800  Biso   1.000  C
  H358     1.0000 0.58210  0.06020  0.35440  Biso   1.000  H
  C498     1.0000 0.52200  0.03200  0.38700  Biso   1.000  C
  H359     1.0000 0.53850  0.01620  0.40840  Biso   1.000  H
  N109     1.0000 0.62330  0.03850  0.24270  Biso   1.000  N
  N110     1.0000 0.60140  0.13390  0.19030  Biso   1.000  N
  N111     1.0000 0.64640  0.13010  0.29720  Biso   1.000  N
  N112     1.0000 0.53940  0.10060  0.27680  Biso   1.000  N
  C499     1.0000 0.57300  0.11800  0.15300  Biso   1.000  C
  C500     1.0000 0.55500  0.07600  0.14600  Biso   1.000  C
  H360     1.0000 0.55820  0.05020  0.16800  Biso   1.000  H
  C501     1.0000 0.53900  0.07100  0.10300  Biso   1.000  C
  H361     1.0000 0.52480  0.04220  0.09660  Biso   1.000  H
  H362     1.0000 0.69750  0.08350  0.31840  Biso   1.000  H
  C502     1.0000 0.52530  0.10150  0.32310  Biso   1.000  C
  C503     1.0000 0.55010  0.09570  0.36470  Biso   1.000  C
  H363     1.0000 0.58240  0.09490  0.36520  Biso   1.000  H
  C504     1.0000 0.52500  0.09300  0.40600  Biso   1.000  C
  H364     1.0000 0.53930  0.08820  0.43360  Biso   1.000  H
  Co29     1.0000 0.74850  0.60350  0.89560  Biso   1.000  Co
  C505     1.0000 0.77790  0.66410  0.97680  Biso   1.000  C
  C506     1.0000 0.79900  0.69100  0.94650  Biso   1.000  C
  H365     1.0000 0.80110  0.70140  0.91770  Biso   1.000  H
  C507     1.0000 0.82000  0.73370  0.97100  Biso   1.000  C
  H366     1.0000 0.83380  0.75950  0.95980  Biso   1.000  H
  C508     1.0000 0.85200  0.59800  0.88600  Biso   1.000  C
  C509     1.0000 0.86100  0.59000  0.93100  Biso   1.000  C
  H367     1.0000 0.84440  0.58680  0.96000  Biso   1.000  H
  C510     1.0000 0.91200  0.58600  0.94600  Biso   1.000  C
  H368     1.0000 0.92250  0.58290  0.97760  Biso   1.000  H
  C511     1.0000 0.68060  0.64460  0.82710  Biso   1.000  C
  C512     1.0000 0.68560  0.61520  0.78830  Biso   1.000  C
  H369     1.0000 0.70560  0.59050  0.78460  Biso   1.000  H
  C513     1.0000 0.65720  0.62530  0.75010  Biso   1.000  C
  H370     1.0000 0.67010  0.61180  0.71640  Biso   1.000  H
  C514     1.0000 0.68600  0.52300  0.92300  Biso   1.000  C
  C515     1.0000 0.65200  0.54700  0.94200  Biso   1.000  C
  H371     1.0000 0.64560  0.58210  0.93980  Biso   1.000  H
  C516     1.0000 0.61300  0.52200  0.96800  Biso   1.000  C
  H372     1.0000 0.59160  0.53850  0.98380  Biso   1.000  H
  N113     1.0000 0.75730  0.62330  0.96150  Biso   1.000  N
  N114     1.0000 0.80970  0.60140  0.86610  Biso   1.000  N
  N115     1.0000 0.70280  0.64640  0.86990  Biso   1.000  N
  N116     1.0000 0.72320  0.53940  0.89940  Biso   1.000  N
  C517     1.0000 0.84700  0.57300  0.88200  Biso   1.000  C
  C518     1.0000 0.85400  0.55500  0.92400  Biso   1.000  C
  H373     1.0000 0.83200  0.55820  0.94980  Biso   1.000  H
  C519     1.0000 0.89700  0.53900  0.92900  Biso   1.000  C
  H374     1.0000 0.90340  0.52480  0.95780  Biso   1.000  H
  H375     1.0000 0.68160  0.69750  0.91650  Biso   1.000  H
  C520     1.0000 0.67690  0.52530  0.89850  Biso   1.000  C
  C521     1.0000 0.63530  0.55010  0.90430  Biso   1.000  C
  H376     1.0000 0.63480  0.58240  0.90510  Biso   1.000  H
  C522     1.0000 0.59400  0.52500  0.90700  Biso   1.000  C
  H377     1.0000 0.56640  0.53930  0.91180  Biso   1.000  H
  Co30     1.0000 0.74850  0.39650  0.10440  Biso   1.000  Co
  C523     1.0000 0.77790  0.33590  0.02320  Biso   1.000  C
  C524     1.0000 0.79900  0.30900  0.05350  Biso   1.000  C
  H378     1.0000 0.80110  0.29860  0.08230  Biso   1.000  H
  C525     1.0000 0.82000  0.26630  0.02900  Biso   1.000  C
  H379     1.0000 0.83380  0.24050  0.04020  Biso   1.000  H
  C526     1.0000 0.85200  0.40200  0.11400  Biso   1.000  C
  C527     1.0000 0.86100  0.41000  0.06900  Biso   1.000  C
  H380     1.0000 0.84440  0.41320  0.04000  Biso   1.000  H
  C528     1.0000 0.91200  0.41400  0.05400  Biso   1.000  C
  H381     1.0000 0.92250  0.41710  0.02240  Biso   1.000  H
  C529     1.0000 0.68060  0.35540  0.17290  Biso   1.000  C
  C530     1.0000 0.68560  0.38480  0.21170  Biso   1.000  C
  H382     1.0000 0.70560  0.40950  0.21540  Biso   1.000  H
  C531     1.0000 0.65720  0.37470  0.24990  Biso   1.000  C
  H383     1.0000 0.67010  0.38820  0.28360  Biso   1.000  H
  C532     1.0000 0.68600  0.47700  0.07700  Biso   1.000  C
  C533     1.0000 0.65200  0.45300  0.05800  Biso   1.000  C
  H384     1.0000 0.64560  0.41790  0.06020  Biso   1.000  H
  C534     1.0000 0.61300  0.47800  0.03200  Biso   1.000  C
  H385     1.0000 0.59160  0.46150  0.01620  Biso   1.000  H
  N117     1.0000 0.75730  0.37670  0.03850  Biso   1.000  N
  N118     1.0000 0.80970  0.39860  0.13390  Biso   1.000  N
  N119     1.0000 0.70280  0.35360  0.13010  Biso   1.000  N
  N120     1.0000 0.72320  0.46060  0.10060  Biso   1.000  N
  C535     1.0000 0.84700  0.42700  0.11800  Biso   1.000  C
  C536     1.0000 0.85400  0.44500  0.07600  Biso   1.000  C
  H386     1.0000 0.83200  0.44180  0.05020  Biso   1.000  H
  C537     1.0000 0.89700  0.46100  0.07100  Biso   1.000  C
  H387     1.0000 0.90340  0.47520  0.04220  Biso   1.000  H
  H388     1.0000 0.68160  0.30250  0.08350  Biso   1.000  H
  C538     1.0000 0.67690  0.47470  0.10150  Biso   1.000  C
  C539     1.0000 0.63530  0.44990  0.09570  Biso   1.000  C
  H389     1.0000 0.63480  0.41760  0.09490  Biso   1.000  H
  C540     1.0000 0.59400  0.47500  0.09300  Biso   1.000  C
  H390     1.0000 0.56640  0.46070  0.08820  Biso   1.000  H
  Co31     1.0000 0.25150  0.39650  0.89560  Biso   1.000  Co
  C541     1.0000 0.22210  0.33590  0.97680  Biso   1.000  C
  C542     1.0000 0.20100  0.30900  0.94650  Biso   1.000  C
  H391     1.0000 0.19890  0.29860  0.91770  Biso   1.000  H
  C543     1.0000 0.18000  0.26630  0.97100  Biso   1.000  C
  H392     1.0000 0.16620  0.24050  0.95980  Biso   1.000  H
  C544     1.0000 0.14800  0.40200  0.88600  Biso   1.000  C
  C545     1.0000 0.13900  0.41000  0.93100  Biso   1.000  C
  H393     1.0000 0.15560  0.41320  0.96000  Biso   1.000  H
  C546     1.0000 0.08800  0.41400  0.94600  Biso   1.000  C
  H394     1.0000 0.07750  0.41710  0.97760  Biso   1.000  H
  C547     1.0000 0.31940  0.35540  0.82710  Biso   1.000  C
  C548     1.0000 0.31440  0.38480  0.78830  Biso   1.000  C
  H395     1.0000 0.29440  0.40950  0.78460  Biso   1.000  H
  C549     1.0000 0.34280  0.37470  0.75010  Biso   1.000  C
  H396     1.0000 0.32990  0.38820  0.71640  Biso   1.000  H
  C550     1.0000 0.31400  0.47700  0.92300  Biso   1.000  C
  C551     1.0000 0.34800  0.45300  0.94200  Biso   1.000  C
  H397     1.0000 0.35440  0.41790  0.93980  Biso   1.000  H
  C552     1.0000 0.38700  0.47800  0.96800  Biso   1.000  C
  H398     1.0000 0.40840  0.46150  0.98380  Biso   1.000  H
  N121     1.0000 0.24270  0.37670  0.96150  Biso   1.000  N
  N122     1.0000 0.19030  0.39860  0.86610  Biso   1.000  N
  N123     1.0000 0.29720  0.35360  0.86990  Biso   1.000  N
  N124     1.0000 0.27680  0.46060  0.89940  Biso   1.000  N
  C553     1.0000 0.15300  0.42700  0.88200  Biso   1.000  C
  C554     1.0000 0.14600  0.44500  0.92400  Biso   1.000  C
  H399     1.0000 0.16800  0.44180  0.94980  Biso   1.000  H
  C555     1.0000 0.10300  0.46100  0.92900  Biso   1.000  C
  H400     1.0000 0.09660  0.47520  0.95780  Biso   1.000  H
  H401     1.0000 0.31840  0.30250  0.91650  Biso   1.000  H
  C556     1.0000 0.32310  0.47470  0.89850  Biso   1.000  C
  C557     1.0000 0.36470  0.44990  0.90430  Biso   1.000  C
  H402     1.0000 0.36520  0.41760  0.90510  Biso   1.000  H
  C558     1.0000 0.40600  0.47500  0.90700  Biso   1.000  C
  H403     1.0000 0.43360  0.46070  0.91180  Biso   1.000  H
  Co32     1.0000 0.25150  0.60350  0.10440  Biso   1.000  Co
  C559     1.0000 0.22210  0.66410  0.02320  Biso   1.000  C
  C560     1.0000 0.20100  0.69100  0.05350  Biso   1.000  C
  H404     1.0000 0.19890  0.70140  0.08230  Biso   1.000  H
  C561     1.0000 0.18000  0.73370  0.02900  Biso   1.000  C
  H405     1.0000 0.16620  0.75950  0.04020  Biso   1.000  H
  C562     1.0000 0.14800  0.59800  0.11400  Biso   1.000  C
  C563     1.0000 0.13900  0.59000  0.06900  Biso   1.000  C
  H406     1.0000 0.15560  0.58680  0.04000  Biso   1.000  H
  C564     1.0000 0.08800  0.58600  0.05400  Biso   1.000  C
  H407     1.0000 0.07750  0.58290  0.02240  Biso   1.000  H
  C565     1.0000 0.31940  0.64460  0.17290  Biso   1.000  C
  C566     1.0000 0.31440  0.61520  0.21170  Biso   1.000  C
  H408     1.0000 0.29440  0.59050  0.21540  Biso   1.000  H
  C567     1.0000 0.34280  0.62530  0.24990  Biso   1.000  C
  H409     1.0000 0.32990  0.61180  0.28360  Biso   1.000  H
  C568     1.0000 0.31400  0.52300  0.07700  Biso   1.000  C
  C569     1.0000 0.34800  0.54700  0.05800  Biso   1.000  C
  H410     1.0000 0.35440  0.58210  0.06020  Biso   1.000  H
  C570     1.0000 0.38700  0.52200  0.03200  Biso   1.000  C
  H411     1.0000 0.40840  0.53850  0.01620  Biso   1.000  H
  N125     1.0000 0.24270  0.62330  0.03850  Biso   1.000  N
  N126     1.0000 0.19030  0.60140  0.13390  Biso   1.000  N
  N127     1.0000 0.29720  0.64640  0.13010  Biso   1.000  N
  N128     1.0000 0.27680  0.53940  0.10060  Biso   1.000  N
  C571     1.0000 0.15300  0.57300  0.11800  Biso   1.000  C
  C572     1.0000 0.14600  0.55500  0.07600  Biso   1.000  C
  H412     1.0000 0.16800  0.55820  0.05020  Biso   1.000  H
  C573     1.0000 0.10300  0.53900  0.07100  Biso   1.000  C
  H413     1.0000 0.09660  0.52480  0.04220  Biso   1.000  H
  H414     1.0000 0.31840  0.69750  0.08350  Biso   1.000  H
  C574     1.0000 0.32310  0.52530  0.10150  Biso   1.000  C
  C575     1.0000 0.36470  0.55010  0.09570  Biso   1.000  C
  H415     1.0000 0.36520  0.58240  0.09490  Biso   1.000  H
  C576     1.0000 0.40600  0.52500  0.09300  Biso   1.000  C
  H416     1.0000 0.43360  0.53930  0.08820  Biso   1.000  H
  Co33     1.0000 0.89560  0.74850  0.60350  Biso   1.000  Co
  C577     1.0000 0.97680  0.77790  0.66410  Biso   1.000  C
  C578     1.0000 0.94650  0.79900  0.69100  Biso   1.000  C
  H417     1.0000 0.91770  0.80110  0.70140  Biso   1.000  H
  C579     1.0000 0.97100  0.82000  0.73370  Biso   1.000  C
  H418     1.0000 0.95980  0.83380  0.75950  Biso   1.000  H
  C580     1.0000 0.88600  0.85200  0.59800  Biso   1.000  C
  C581     1.0000 0.93100  0.86100  0.59000  Biso   1.000  C
  H419     1.0000 0.96000  0.84440  0.58680  Biso   1.000  H
  C582     1.0000 0.94600  0.91200  0.58600  Biso   1.000  C
  H420     1.0000 0.97760  0.92250  0.58290  Biso   1.000  H
  C583     1.0000 0.82710  0.68060  0.64460  Biso   1.000  C
  C584     1.0000 0.78830  0.68560  0.61520  Biso   1.000  C
  H421     1.0000 0.78460  0.70560  0.59050  Biso   1.000  H
  C585     1.0000 0.75010  0.65720  0.62530  Biso   1.000  C
  H422     1.0000 0.71640  0.67010  0.61180  Biso   1.000  H
  C586     1.0000 0.92300  0.68600  0.52300  Biso   1.000  C
  C587     1.0000 0.94200  0.65200  0.54700  Biso   1.000  C
  H423     1.0000 0.93980  0.64560  0.58210  Biso   1.000  H
  C588     1.0000 0.96800  0.61300  0.52200  Biso   1.000  C
  H424     1.0000 0.98380  0.59160  0.53850  Biso   1.000  H
  N129     1.0000 0.96150  0.75730  0.62330  Biso   1.000  N
  N130     1.0000 0.86610  0.80970  0.60140  Biso   1.000  N
  N131     1.0000 0.86990  0.70280  0.64640  Biso   1.000  N
  N132     1.0000 0.89940  0.72320  0.53940  Biso   1.000  N
  C589     1.0000 0.88200  0.84700  0.57300  Biso   1.000  C
  C590     1.0000 0.92400  0.85400  0.55500  Biso   1.000  C
  H425     1.0000 0.94980  0.83200  0.55820  Biso   1.000  H
  C591     1.0000 0.92900  0.89700  0.53900  Biso   1.000  C
  H426     1.0000 0.95780  0.90340  0.52480  Biso   1.000  H
  H427     1.0000 0.91650  0.68160  0.69750  Biso   1.000  H
  C592     1.0000 0.89850  0.67690  0.52530  Biso   1.000  C
  C593     1.0000 0.90430  0.63530  0.55010  Biso   1.000  C
  H428     1.0000 0.90510  0.63480  0.58240  Biso   1.000  H
  C594     1.0000 0.90700  0.59400  0.52500  Biso   1.000  C
  H429     1.0000 0.91180  0.56640  0.53930  Biso   1.000  H
  Co34     1.0000 0.10440  0.74850  0.39650  Biso   1.000  Co
  C595     1.0000 0.02320  0.77790  0.33590  Biso   1.000  C
  C596     1.0000 0.05350  0.79900  0.30900  Biso   1.000  C
  H430     1.0000 0.08230  0.80110  0.29860  Biso   1.000  H
  C597     1.0000 0.02900  0.82000  0.26630  Biso   1.000  C
  H431     1.0000 0.04020  0.83380  0.24050  Biso   1.000  H
  C598     1.0000 0.11400  0.85200  0.40200  Biso   1.000  C
  C599     1.0000 0.06900  0.86100  0.41000  Biso   1.000  C
  H432     1.0000 0.04000  0.84440  0.41320  Biso   1.000  H
  C600     1.0000 0.05400  0.91200  0.41400  Biso   1.000  C
  H433     1.0000 0.02240  0.92250  0.41710  Biso   1.000  H
  C601     1.0000 0.17290  0.68060  0.35540  Biso   1.000  C
  C602     1.0000 0.21170  0.68560  0.38480  Biso   1.000  C
  H434     1.0000 0.21540  0.70560  0.40950  Biso   1.000  H
  C603     1.0000 0.24990  0.65720  0.37470  Biso   1.000  C
  H435     1.0000 0.28360  0.67010  0.38820  Biso   1.000  H
  C604     1.0000 0.07700  0.68600  0.47700  Biso   1.000  C
  C605     1.0000 0.05800  0.65200  0.45300  Biso   1.000  C
  H436     1.0000 0.06020  0.64560  0.41790  Biso   1.000  H
  C606     1.0000 0.03200  0.61300  0.47800  Biso   1.000  C
  H437     1.0000 0.01620  0.59160  0.46150  Biso   1.000  H
  N133     1.0000 0.03850  0.75730  0.37670  Biso   1.000  N
  N134     1.0000 0.13390  0.80970  0.39860  Biso   1.000  N
  N135     1.0000 0.13010  0.70280  0.35360  Biso   1.000  N
  N136     1.0000 0.10060  0.72320  0.46060  Biso   1.000  N
  C607     1.0000 0.11800  0.84700  0.42700  Biso   1.000  C
  C608     1.0000 0.07600  0.85400  0.44500  Biso   1.000  C
  H438     1.0000 0.05020  0.83200  0.44180  Biso   1.000  H
  C609     1.0000 0.07100  0.89700  0.46100  Biso   1.000  C
  H439     1.0000 0.04220  0.90340  0.47520  Biso   1.000  H
  H440     1.0000 0.08350  0.68160  0.30250  Biso   1.000  H
  C610     1.0000 0.10150  0.67690  0.47470  Biso   1.000  C
  C611     1.0000 0.09570  0.63530  0.44990  Biso   1.000  C
  H441     1.0000 0.09490  0.63480  0.41760  Biso   1.000  H
  C612     1.0000 0.09300  0.59400  0.47500  Biso   1.000  C
  H442     1.0000 0.08820  0.56640  0.46070  Biso   1.000  H
  Co35     1.0000 0.89560  0.25150  0.39650  Biso   1.000  Co
  C613     1.0000 0.97680  0.22210  0.33590  Biso   1.000  C
  C614     1.0000 0.94650  0.20100  0.30900  Biso   1.000  C
  H443     1.0000 0.91770  0.19890  0.29860  Biso   1.000  H
  C615     1.0000 0.97100  0.18000  0.26630  Biso   1.000  C
  H444     1.0000 0.95980  0.16620  0.24050  Biso   1.000  H
  C616     1.0000 0.88600  0.14800  0.40200  Biso   1.000  C
  C617     1.0000 0.93100  0.13900  0.41000  Biso   1.000  C
  H445     1.0000 0.96000  0.15560  0.41320  Biso   1.000  H
  C618     1.0000 0.94600  0.08800  0.41400  Biso   1.000  C
  H446     1.0000 0.97760  0.07750  0.41710  Biso   1.000  H
  C619     1.0000 0.82710  0.31940  0.35540  Biso   1.000  C
  C620     1.0000 0.78830  0.31440  0.38480  Biso   1.000  C
  H447     1.0000 0.78460  0.29440  0.40950  Biso   1.000  H
  C621     1.0000 0.75010  0.34280  0.37470  Biso   1.000  C
  H448     1.0000 0.71640  0.32990  0.38820  Biso   1.000  H
  C622     1.0000 0.92300  0.31400  0.47700  Biso   1.000  C
  C623     1.0000 0.94200  0.34800  0.45300  Biso   1.000  C
  H449     1.0000 0.93980  0.35440  0.41790  Biso   1.000  H
  C624     1.0000 0.96800  0.38700  0.47800  Biso   1.000  C
  H450     1.0000 0.98380  0.40840  0.46150  Biso   1.000  H
  N137     1.0000 0.96150  0.24270  0.37670  Biso   1.000  N
  N138     1.0000 0.86610  0.19030  0.39860  Biso   1.000  N
  N139     1.0000 0.86990  0.29720  0.35360  Biso   1.000  N
  N140     1.0000 0.89940  0.27680  0.46060  Biso   1.000  N
  C625     1.0000 0.88200  0.15300  0.42700  Biso   1.000  C
  C626     1.0000 0.92400  0.14600  0.44500  Biso   1.000  C
  H451     1.0000 0.94980  0.16800  0.44180  Biso   1.000  H
  C627     1.0000 0.92900  0.10300  0.46100  Biso   1.000  C
  H452     1.0000 0.95780  0.09660  0.47520  Biso   1.000  H
  H453     1.0000 0.91650  0.31840  0.30250  Biso   1.000  H
  C628     1.0000 0.89850  0.32310  0.47470  Biso   1.000  C
  C629     1.0000 0.90430  0.36470  0.44990  Biso   1.000  C
  H454     1.0000 0.90510  0.36520  0.41760  Biso   1.000  H
  C630     1.0000 0.90700  0.40600  0.47500  Biso   1.000  C
  H455     1.0000 0.91180  0.43360  0.46070  Biso   1.000  H
  Co36     1.0000 0.10440  0.25150  0.60350  Biso   1.000  Co
  C631     1.0000 0.02320  0.22210  0.66410  Biso   1.000  C
  C632     1.0000 0.05350  0.20100  0.69100  Biso   1.000  C
  H456     1.0000 0.08230  0.19890  0.70140  Biso   1.000  H
  C633     1.0000 0.02900  0.18000  0.73370  Biso   1.000  C
  H457     1.0000 0.04020  0.16620  0.75950  Biso   1.000  H
  C634     1.0000 0.11400  0.14800  0.59800  Biso   1.000  C
  C635     1.0000 0.06900  0.13900  0.59000  Biso   1.000  C
  H458     1.0000 0.04000  0.15560  0.58680  Biso   1.000  H
  C636     1.0000 0.05400  0.08800  0.58600  Biso   1.000  C
  H459     1.0000 0.02240  0.07750  0.58290  Biso   1.000  H
  C637     1.0000 0.17290  0.31940  0.64460  Biso   1.000  C
  C638     1.0000 0.21170  0.31440  0.61520  Biso   1.000  C
  H460     1.0000 0.21540  0.29440  0.59050  Biso   1.000  H
  C639     1.0000 0.24990  0.34280  0.62530  Biso   1.000  C
  H461     1.0000 0.28360  0.32990  0.61180  Biso   1.000  H
  C640     1.0000 0.07700  0.31400  0.52300  Biso   1.000  C
  C641     1.0000 0.05800  0.34800  0.54700  Biso   1.000  C
  H462     1.0000 0.06020  0.35440  0.58210  Biso   1.000  H
  C642     1.0000 0.03200  0.38700  0.52200  Biso   1.000  C
  H463     1.0000 0.01620  0.40840  0.53850  Biso   1.000  H
  N141     1.0000 0.03850  0.24270  0.62330  Biso   1.000  N
  N142     1.0000 0.13390  0.19030  0.60140  Biso   1.000  N
  N143     1.0000 0.13010  0.29720  0.64640  Biso   1.000  N
  N144     1.0000 0.10060  0.27680  0.53940  Biso   1.000  N
  C643     1.0000 0.11800  0.15300  0.57300  Biso   1.000  C
  C644     1.0000 0.07600  0.14600  0.55500  Biso   1.000  C
  H464     1.0000 0.05020  0.16800  0.55820  Biso   1.000  H
  C645     1.0000 0.07100  0.10300  0.53900  Biso   1.000  C
  H465     1.0000 0.04220  0.09660  0.52480  Biso   1.000  H
  H466     1.0000 0.08350  0.31840  0.69750  Biso   1.000  H
  C646     1.0000 0.10150  0.32310  0.52530  Biso   1.000  C
  C647     1.0000 0.09570  0.36470  0.55010  Biso   1.000  C
  H467     1.0000 0.09490  0.36520  0.58240  Biso   1.000  H
  C648     1.0000 0.09300  0.40600  0.52500  Biso   1.000  C
  H468     1.0000 0.08820  0.43360  0.53930  Biso   1.000  H
  Co37     1.0000 0.89560  0.60350  0.25150  Biso   1.000  Co
  C649     1.0000 0.97680  0.66410  0.22210  Biso   1.000  C
  C650     1.0000 0.94650  0.69100  0.20100  Biso   1.000  C
  H469     1.0000 0.91770  0.70140  0.19890  Biso   1.000  H
  C651     1.0000 0.97100  0.73370  0.18000  Biso   1.000  C
  H470     1.0000 0.95980  0.75950  0.16620  Biso   1.000  H
  C652     1.0000 0.88600  0.59800  0.14800  Biso   1.000  C
  C653     1.0000 0.93100  0.59000  0.13900  Biso   1.000  C
  H471     1.0000 0.96000  0.58680  0.15560  Biso   1.000  H
  C654     1.0000 0.94600  0.58600  0.08800  Biso   1.000  C
  H472     1.0000 0.97760  0.58290  0.07750  Biso   1.000  H
  C655     1.0000 0.82710  0.64460  0.31940  Biso   1.000  C
  C656     1.0000 0.78830  0.61520  0.31440  Biso   1.000  C
  H473     1.0000 0.78460  0.59050  0.29440  Biso   1.000  H
  C657     1.0000 0.75010  0.62530  0.34280  Biso   1.000  C
  H474     1.0000 0.71640  0.61180  0.32990  Biso   1.000  H
  C658     1.0000 0.92300  0.52300  0.31400  Biso   1.000  C
  C659     1.0000 0.94200  0.54700  0.34800  Biso   1.000  C
  H475     1.0000 0.93980  0.58210  0.35440  Biso   1.000  H
  C660     1.0000 0.96800  0.52200  0.38700  Biso   1.000  C
  H476     1.0000 0.98380  0.53850  0.40840  Biso   1.000  H
  N145     1.0000 0.96150  0.62330  0.24270  Biso   1.000  N
  N146     1.0000 0.86610  0.60140  0.19030  Biso   1.000  N
  N147     1.0000 0.86990  0.64640  0.29720  Biso   1.000  N
  N148     1.0000 0.89940  0.53940  0.27680  Biso   1.000  N
  C661     1.0000 0.88200  0.57300  0.15300  Biso   1.000  C
  C662     1.0000 0.92400  0.55500  0.14600  Biso   1.000  C
  H477     1.0000 0.94980  0.55820  0.16800  Biso   1.000  H
  C663     1.0000 0.92900  0.53900  0.10300  Biso   1.000  C
  H478     1.0000 0.95780  0.52480  0.09660  Biso   1.000  H
  H479     1.0000 0.91650  0.69750  0.31840  Biso   1.000  H
  C664     1.0000 0.89850  0.52530  0.32310  Biso   1.000  C
  C665     1.0000 0.90430  0.55010  0.36470  Biso   1.000  C
  H480     1.0000 0.90510  0.58240  0.36520  Biso   1.000  H
  C666     1.0000 0.90700  0.52500  0.40600  Biso   1.000  C
  H481     1.0000 0.91180  0.53930  0.43360  Biso   1.000  H
  Co38     1.0000 0.10440  0.39650  0.25150  Biso   1.000  Co
  C667     1.0000 0.02320  0.33590  0.22210  Biso   1.000  C
  C668     1.0000 0.05350  0.30900  0.20100  Biso   1.000  C
  H482     1.0000 0.08230  0.29860  0.19890  Biso   1.000  H
  C669     1.0000 0.02900  0.26630  0.18000  Biso   1.000  C
  H483     1.0000 0.04020  0.24050  0.16620  Biso   1.000  H
  C670     1.0000 0.11400  0.40200  0.14800  Biso   1.000  C
  C671     1.0000 0.06900  0.41000  0.13900  Biso   1.000  C
  H484     1.0000 0.04000  0.41320  0.15560  Biso   1.000  H
  C672     1.0000 0.05400  0.41400  0.08800  Biso   1.000  C
  H485     1.0000 0.02240  0.41710  0.07750  Biso   1.000  H
  C673     1.0000 0.17290  0.35540  0.31940  Biso   1.000  C
  C674     1.0000 0.21170  0.38480  0.31440  Biso   1.000  C
  H486     1.0000 0.21540  0.40950  0.29440  Biso   1.000  H
  C675     1.0000 0.24990  0.37470  0.34280  Biso   1.000  C
  H487     1.0000 0.28360  0.38820  0.32990  Biso   1.000  H
  C676     1.0000 0.07700  0.47700  0.31400  Biso   1.000  C
  C677     1.0000 0.05800  0.45300  0.34800  Biso   1.000  C
  H488     1.0000 0.06020  0.41790  0.35440  Biso   1.000  H
  C678     1.0000 0.03200  0.47800  0.38700  Biso   1.000  C
  H489     1.0000 0.01620  0.46150  0.40840  Biso   1.000  H
  N149     1.0000 0.03850  0.37670  0.24270  Biso   1.000  N
  N150     1.0000 0.13390  0.39860  0.19030  Biso   1.000  N
  N151     1.0000 0.13010  0.35360  0.29720  Biso   1.000  N
  N152     1.0000 0.10060  0.46060  0.27680  Biso   1.000  N
  C679     1.0000 0.11800  0.42700  0.15300  Biso   1.000  C
  C680     1.0000 0.07600  0.44500  0.14600  Biso   1.000  C
  H490     1.0000 0.05020  0.44180  0.16800  Biso   1.000  H
  C681     1.0000 0.07100  0.46100  0.10300  Biso   1.000  C
  H491     1.0000 0.04220  0.47520  0.09660  Biso   1.000  H
  H492     1.0000 0.08350  0.30250  0.31840  Biso   1.000  H
  C682     1.0000 0.10150  0.47470  0.32310  Biso   1.000  C
  C683     1.0000 0.09570  0.44990  0.36470  Biso   1.000  C
  H493     1.0000 0.09490  0.41760  0.36520  Biso   1.000  H
  C684     1.0000 0.09300  0.47500  0.40600  Biso   1.000  C
  H494     1.0000 0.08820  0.46070  0.43360  Biso   1.000  H
  Co39     1.0000 0.89560  0.39650  0.74850  Biso   1.000  Co
  C685     1.0000 0.97680  0.33590  0.77790  Biso   1.000  C
  C686     1.0000 0.94650  0.30900  0.79900  Biso   1.000  C
  H495     1.0000 0.91770  0.29860  0.80110  Biso   1.000  H
  C687     1.0000 0.97100  0.26630  0.82000  Biso   1.000  C
  H496     1.0000 0.95980  0.24050  0.83380  Biso   1.000  H
  C688     1.0000 0.88600  0.40200  0.85200  Biso   1.000  C
  C689     1.0000 0.93100  0.41000  0.86100  Biso   1.000  C
  H497     1.0000 0.96000  0.41320  0.84440  Biso   1.000  H
  C690     1.0000 0.94600  0.41400  0.91200  Biso   1.000  C
  H498     1.0000 0.97760  0.41710  0.92250  Biso   1.000  H
  C691     1.0000 0.82710  0.35540  0.68060  Biso   1.000  C
  C692     1.0000 0.78830  0.38480  0.68560  Biso   1.000  C
  H499     1.0000 0.78460  0.40950  0.70560  Biso   1.000  H
  C693     1.0000 0.75010  0.37470  0.65720  Biso   1.000  C
  H500     1.0000 0.71640  0.38820  0.67010  Biso   1.000  H
  C694     1.0000 0.92300  0.47700  0.68600  Biso   1.000  C
  C695     1.0000 0.94200  0.45300  0.65200  Biso   1.000  C
  H501     1.0000 0.93980  0.41790  0.64560  Biso   1.000  H
  C696     1.0000 0.96800  0.47800  0.61300  Biso   1.000  C
  H502     1.0000 0.98380  0.46150  0.59160  Biso   1.000  H
  N153     1.0000 0.96150  0.37670  0.75730  Biso   1.000  N
  N154     1.0000 0.86610  0.39860  0.80970  Biso   1.000  N
  N155     1.0000 0.86990  0.35360  0.70280  Biso   1.000  N
  N156     1.0000 0.89940  0.46060  0.72320  Biso   1.000  N
  C697     1.0000 0.88200  0.42700  0.84700  Biso   1.000  C
  C698     1.0000 0.92400  0.44500  0.85400  Biso   1.000  C
  H503     1.0000 0.94980  0.44180  0.83200  Biso   1.000  H
  C699     1.0000 0.92900  0.46100  0.89700  Biso   1.000  C
  H504     1.0000 0.95780  0.47520  0.90340  Biso   1.000  H
  H505     1.0000 0.91650  0.30250  0.68160  Biso   1.000  H
  C700     1.0000 0.89850  0.47470  0.67690  Biso   1.000  C
  C701     1.0000 0.90430  0.44990  0.63530  Biso   1.000  C
  H506     1.0000 0.90510  0.41760  0.63480  Biso   1.000  H
  C702     1.0000 0.90700  0.47500  0.59400  Biso   1.000  C
  H507     1.0000 0.91180  0.46070  0.56640  Biso   1.000  H
  Co40     1.0000 0.10440  0.60350  0.74850  Biso   1.000  Co
  C703     1.0000 0.02320  0.66410  0.77790  Biso   1.000  C
  C704     1.0000 0.05350  0.69100  0.79900  Biso   1.000  C
  H508     1.0000 0.08230  0.70140  0.80110  Biso   1.000  H
  C705     1.0000 0.02900  0.73370  0.82000  Biso   1.000  C
  H509     1.0000 0.04020  0.75950  0.83380  Biso   1.000  H
  C706     1.0000 0.11400  0.59800  0.85200  Biso   1.000  C
  C707     1.0000 0.06900  0.59000  0.86100  Biso   1.000  C
  H510     1.0000 0.04000  0.58680  0.84440  Biso   1.000  H
  C708     1.0000 0.05400  0.58600  0.91200  Biso   1.000  C
  H511     1.0000 0.02240  0.58290  0.92250  Biso   1.000  H
  C709     1.0000 0.17290  0.64460  0.68060  Biso   1.000  C
  C710     1.0000 0.21170  0.61520  0.68560  Biso   1.000  C
  H512     1.0000 0.21540  0.59050  0.70560  Biso   1.000  H
  C711     1.0000 0.24990  0.62530  0.65720  Biso   1.000  C
  H513     1.0000 0.28360  0.61180  0.67010  Biso   1.000  H
  C712     1.0000 0.07700  0.52300  0.68600  Biso   1.000  C
  C713     1.0000 0.05800  0.54700  0.65200  Biso   1.000  C
  H514     1.0000 0.06020  0.58210  0.64560  Biso   1.000  H
  C714     1.0000 0.03200  0.52200  0.61300  Biso   1.000  C
  H515     1.0000 0.01620  0.53850  0.59160  Biso   1.000  H
  N157     1.0000 0.03850  0.62330  0.75730  Biso   1.000  N
  N158     1.0000 0.13390  0.60140  0.80970  Biso   1.000  N
  N159     1.0000 0.13010  0.64640  0.70280  Biso   1.000  N
  N160     1.0000 0.10060  0.53940  0.72320  Biso   1.000  N
  C715     1.0000 0.11800  0.57300  0.84700  Biso   1.000  C
  C716     1.0000 0.07600  0.55500  0.85400  Biso   1.000  C
  H516     1.0000 0.05020  0.55820  0.83200  Biso   1.000  H
  C717     1.0000 0.07100  0.53900  0.89700  Biso   1.000  C
  H517     1.0000 0.04220  0.52480  0.90340  Biso   1.000  H
  H518     1.0000 0.08350  0.69750  0.68160  Biso   1.000  H
  C718     1.0000 0.10150  0.52530  0.67690  Biso   1.000  C
  C719     1.0000 0.09570  0.55010  0.63530  Biso   1.000  C
  H519     1.0000 0.09490  0.58240  0.63480  Biso   1.000  H
  C720     1.0000 0.09300  0.52500  0.59400  Biso   1.000  C
  H520     1.0000 0.08820  0.53930  0.56640  Biso   1.000  H
  Co41     1.0000 0.60350  0.74850  0.10440  Biso   1.000  Co
  C721     1.0000 0.66410  0.77790  0.02320  Biso   1.000  C
  C722     1.0000 0.69100  0.79900  0.05350  Biso   1.000  C
  H521     1.0000 0.70140  0.80110  0.08230  Biso   1.000  H
  C723     1.0000 0.73370  0.82000  0.02900  Biso   1.000  C
  H522     1.0000 0.75950  0.83380  0.04020  Biso   1.000  H
  C724     1.0000 0.59800  0.85200  0.11400  Biso   1.000  C
  C725     1.0000 0.59000  0.86100  0.06900  Biso   1.000  C
  H523     1.0000 0.58680  0.84440  0.04000  Biso   1.000  H
  C726     1.0000 0.58600  0.91200  0.05400  Biso   1.000  C
  H524     1.0000 0.58290  0.92250  0.02240  Biso   1.000  H
  C727     1.0000 0.64460  0.68060  0.17290  Biso   1.000  C
  C728     1.0000 0.61520  0.68560  0.21170  Biso   1.000  C
  H525     1.0000 0.59050  0.70560  0.21540  Biso   1.000  H
  C729     1.0000 0.62530  0.65720  0.24990  Biso   1.000  C
  H526     1.0000 0.61180  0.67010  0.28360  Biso   1.000  H
  C730     1.0000 0.52300  0.68600  0.07700  Biso   1.000  C
  C731     1.0000 0.54700  0.65200  0.05800  Biso   1.000  C
  H527     1.0000 0.58210  0.64560  0.06020  Biso   1.000  H
  C732     1.0000 0.52200  0.61300  0.03200  Biso   1.000  C
  H528     1.0000 0.53850  0.59160  0.01620  Biso   1.000  H
  N161     1.0000 0.62330  0.75730  0.03850  Biso   1.000  N
  N162     1.0000 0.60140  0.80970  0.13390  Biso   1.000  N
  N163     1.0000 0.64640  0.70280  0.13010  Biso   1.000  N
  N164     1.0000 0.53940  0.72320  0.10060  Biso   1.000  N
  C733     1.0000 0.57300  0.84700  0.11800  Biso   1.000  C
  C734     1.0000 0.55500  0.85400  0.07600  Biso   1.000  C
  H529     1.0000 0.55820  0.83200  0.05020  Biso   1.000  H
  C735     1.0000 0.53900  0.89700  0.07100  Biso   1.000  C
  H530     1.0000 0.52480  0.90340  0.04220  Biso   1.000  H
  H531     1.0000 0.69750  0.68160  0.08350  Biso   1.000  H
  C736     1.0000 0.52530  0.67690  0.10150  Biso   1.000  C
  C737     1.0000 0.55010  0.63530  0.09570  Biso   1.000  C
  H532     1.0000 0.58240  0.63480  0.09490  Biso   1.000  H
  C738     1.0000 0.52500  0.59400  0.09300  Biso   1.000  C
  H533     1.0000 0.53930  0.56640  0.08820  Biso   1.000  H
  Co42     1.0000 0.39650  0.74850  0.89560  Biso   1.000  Co
  C739     1.0000 0.33590  0.77790  0.97680  Biso   1.000  C
  C740     1.0000 0.30900  0.79900  0.94650  Biso   1.000  C
  H534     1.0000 0.29860  0.80110  0.91770  Biso   1.000  H
  C741     1.0000 0.26630  0.82000  0.97100  Biso   1.000  C
  H535     1.0000 0.24050  0.83380  0.95980  Biso   1.000  H
  C742     1.0000 0.40200  0.85200  0.88600  Biso   1.000  C
  C743     1.0000 0.41000  0.86100  0.93100  Biso   1.000  C
  H536     1.0000 0.41320  0.84440  0.96000  Biso   1.000  H
  C744     1.0000 0.41400  0.91200  0.94600  Biso   1.000  C
  H537     1.0000 0.41710  0.92250  0.97760  Biso   1.000  H
  C745     1.0000 0.35540  0.68060  0.82710  Biso   1.000  C
  C746     1.0000 0.38480  0.68560  0.78830  Biso   1.000  C
  H538     1.0000 0.40950  0.70560  0.78460  Biso   1.000  H
  C747     1.0000 0.37470  0.65720  0.75010  Biso   1.000  C
  H539     1.0000 0.38820  0.67010  0.71640  Biso   1.000  H
  C748     1.0000 0.47700  0.68600  0.92300  Biso   1.000  C
  C749     1.0000 0.45300  0.65200  0.94200  Biso   1.000  C
  H540     1.0000 0.41790  0.64560  0.93980  Biso   1.000  H
  C750     1.0000 0.47800  0.61300  0.96800  Biso   1.000  C
  H541     1.0000 0.46150  0.59160  0.98380  Biso   1.000  H
  N165     1.0000 0.37670  0.75730  0.96150  Biso   1.000  N
  N166     1.0000 0.39860  0.80970  0.86610  Biso   1.000  N
  N167     1.0000 0.35360  0.70280  0.86990  Biso   1.000  N
  N168     1.0000 0.46060  0.72320  0.89940  Biso   1.000  N
  C751     1.0000 0.42700  0.84700  0.88200  Biso   1.000  C
  C752     1.0000 0.44500  0.85400  0.92400  Biso   1.000  C
  H542     1.0000 0.44180  0.83200  0.94980  Biso   1.000  H
  C753     1.0000 0.46100  0.89700  0.92900  Biso   1.000  C
  H543     1.0000 0.47520  0.90340  0.95780  Biso   1.000  H
  H544     1.0000 0.30250  0.68160  0.91650  Biso   1.000  H
  C754     1.0000 0.47470  0.67690  0.89850  Biso   1.000  C
  C755     1.0000 0.44990  0.63530  0.90430  Biso   1.000  C
  H545     1.0000 0.41760  0.63480  0.90510  Biso   1.000  H
  C756     1.0000 0.47500  0.59400  0.90700  Biso   1.000  C
  H546     1.0000 0.46070  0.56640  0.91180  Biso   1.000  H
  Co43     1.0000 0.39650  0.25150  0.10440  Biso   1.000  Co
  C757     1.0000 0.33590  0.22210  0.02320  Biso   1.000  C
  C758     1.0000 0.30900  0.20100  0.05350  Biso   1.000  C
  H547     1.0000 0.29860  0.19890  0.08230  Biso   1.000  H
  C759     1.0000 0.26630  0.18000  0.02900  Biso   1.000  C
  H548     1.0000 0.24050  0.16620  0.04020  Biso   1.000  H
  C760     1.0000 0.40200  0.14800  0.11400  Biso   1.000  C
  C761     1.0000 0.41000  0.13900  0.06900  Biso   1.000  C
  H549     1.0000 0.41320  0.15560  0.04000  Biso   1.000  H
  C762     1.0000 0.41400  0.08800  0.05400  Biso   1.000  C
  H550     1.0000 0.41710  0.07750  0.02240  Biso   1.000  H
  C763     1.0000 0.35540  0.31940  0.17290  Biso   1.000  C
  C764     1.0000 0.38480  0.31440  0.21170  Biso   1.000  C
  H551     1.0000 0.40950  0.29440  0.21540  Biso   1.000  H
  C765     1.0000 0.37470  0.34280  0.24990  Biso   1.000  C
  H552     1.0000 0.38820  0.32990  0.28360  Biso   1.000  H
  C766     1.0000 0.47700  0.31400  0.07700  Biso   1.000  C
  C767     1.0000 0.45300  0.34800  0.05800  Biso   1.000  C
  H553     1.0000 0.41790  0.35440  0.06020  Biso   1.000  H
  C768     1.0000 0.47800  0.38700  0.03200  Biso   1.000  C
  H554     1.0000 0.46150  0.40840  0.01620  Biso   1.000  H
  N169     1.0000 0.37670  0.24270  0.03850  Biso   1.000  N
  N170     1.0000 0.39860  0.19030  0.13390  Biso   1.000  N
  N171     1.0000 0.35360  0.29720  0.13010  Biso   1.000  N
  N172     1.0000 0.46060  0.27680  0.10060  Biso   1.000  N
  C769     1.0000 0.42700  0.15300  0.11800  Biso   1.000  C
  C770     1.0000 0.44500  0.14600  0.07600  Biso   1.000  C
  H555     1.0000 0.44180  0.16800  0.05020  Biso   1.000  H
  C771     1.0000 0.46100  0.10300  0.07100  Biso   1.000  C
  H556     1.0000 0.47520  0.09660  0.04220  Biso   1.000  H
  H557     1.0000 0.30250  0.31840  0.08350  Biso   1.000  H
  C772     1.0000 0.47470  0.32310  0.10150  Biso   1.000  C
  C773     1.0000 0.44990  0.36470  0.09570  Biso   1.000  C
  H558     1.0000 0.41760  0.36520  0.09490  Biso   1.000  H
  C774     1.0000 0.47500  0.40600  0.09300  Biso   1.000  C
  H559     1.0000 0.46070  0.43360  0.08820  Biso   1.000  H
  Co44     1.0000 0.60350  0.25150  0.89560  Biso   1.000  Co
  C775     1.0000 0.66410  0.22210  0.97680  Biso   1.000  C
  C776     1.0000 0.69100  0.20100  0.94650  Biso   1.000  C
  H560     1.0000 0.70140  0.19890  0.91770  Biso   1.000  H
  C777     1.0000 0.73370  0.18000  0.97100  Biso   1.000  C
  H561     1.0000 0.75950  0.16620  0.95980  Biso   1.000  H
  C778     1.0000 0.59800  0.14800  0.88600  Biso   1.000  C
  C779     1.0000 0.59000  0.13900  0.93100  Biso   1.000  C
  H562     1.0000 0.58680  0.15560  0.96000  Biso   1.000  H
  C780     1.0000 0.58600  0.08800  0.94600  Biso   1.000  C
  H563     1.0000 0.58290  0.07750  0.97760  Biso   1.000  H
  C781     1.0000 0.64460  0.31940  0.82710  Biso   1.000  C
  C782     1.0000 0.61520  0.31440  0.78830  Biso   1.000  C
  H564     1.0000 0.59050  0.29440  0.78460  Biso   1.000  H
  C783     1.0000 0.62530  0.34280  0.75010  Biso   1.000  C
  H565     1.0000 0.61180  0.32990  0.71640  Biso   1.000  H
  C784     1.0000 0.52300  0.31400  0.92300  Biso   1.000  C
  C785     1.0000 0.54700  0.34800  0.94200  Biso   1.000  C
  H566     1.0000 0.58210  0.35440  0.93980  Biso   1.000  H
  C786     1.0000 0.52200  0.38700  0.96800  Biso   1.000  C
  H567     1.0000 0.53850  0.40840  0.98380  Biso   1.000  H
  N173     1.0000 0.62330  0.24270  0.96150  Biso   1.000  N
  N174     1.0000 0.60140  0.19030  0.86610  Biso   1.000  N
  N175     1.0000 0.64640  0.29720  0.86990  Biso   1.000  N
  N176     1.0000 0.53940  0.27680  0.89940  Biso   1.000  N
  C787     1.0000 0.57300  0.15300  0.88200  Biso   1.000  C
  C788     1.0000 0.55500  0.14600  0.92400  Biso   1.000  C
  H568     1.0000 0.55820  0.16800  0.94980  Biso   1.000  H
  C789     1.0000 0.53900  0.10300  0.92900  Biso   1.000  C
  H569     1.0000 0.52480  0.09660  0.95780  Biso   1.000  H
  H570     1.0000 0.69750  0.31840  0.91650  Biso   1.000  H
  C790     1.0000 0.52530  0.32310  0.89850  Biso   1.000  C
  C791     1.0000 0.55010  0.36470  0.90430  Biso   1.000  C
  H571     1.0000 0.58240  0.36520  0.90510  Biso   1.000  H
  C792     1.0000 0.52500  0.40600  0.90700  Biso   1.000  C
  H572     1.0000 0.53930  0.43360  0.91180  Biso   1.000  H
  Co45     1.0000 0.74850  0.89560  0.39650  Biso   1.000  Co
  C793     1.0000 0.77790  0.97680  0.33590  Biso   1.000  C
  C794     1.0000 0.79900  0.94650  0.30900  Biso   1.000  C
  H573     1.0000 0.80110  0.91770  0.29860  Biso   1.000  H
  C795     1.0000 0.82000  0.97100  0.26630  Biso   1.000  C
  H574     1.0000 0.83380  0.95980  0.24050  Biso   1.000  H
  C796     1.0000 0.85200  0.88600  0.40200  Biso   1.000  C
  C797     1.0000 0.86100  0.93100  0.41000  Biso   1.000  C
  H575     1.0000 0.84440  0.96000  0.41320  Biso   1.000  H
  C798     1.0000 0.91200  0.94600  0.41400  Biso   1.000  C
  H576     1.0000 0.92250  0.97760  0.41710  Biso   1.000  H
  C799     1.0000 0.68060  0.82710  0.35540  Biso   1.000  C
  C800     1.0000 0.68560  0.78830  0.38480  Biso   1.000  C
  H577     1.0000 0.70560  0.78460  0.40950  Biso   1.000  H
  C801     1.0000 0.65720  0.75010  0.37470  Biso   1.000  C
  H578     1.0000 0.67010  0.71640  0.38820  Biso   1.000  H
  C802     1.0000 0.68600  0.92300  0.47700  Biso   1.000  C
  C803     1.0000 0.65200  0.94200  0.45300  Biso   1.000  C
  H579     1.0000 0.64560  0.93980  0.41790  Biso   1.000  H
  C804     1.0000 0.61300  0.96800  0.47800  Biso   1.000  C
  H580     1.0000 0.59160  0.98380  0.46150  Biso   1.000  H
  N177     1.0000 0.75730  0.96150  0.37670  Biso   1.000  N
  N178     1.0000 0.80970  0.86610  0.39860  Biso   1.000  N
  N179     1.0000 0.70280  0.86990  0.35360  Biso   1.000  N
  N180     1.0000 0.72320  0.89940  0.46060  Biso   1.000  N
  C805     1.0000 0.84700  0.88200  0.42700  Biso   1.000  C
  C806     1.0000 0.85400  0.92400  0.44500  Biso   1.000  C
  H581     1.0000 0.83200  0.94980  0.44180  Biso   1.000  H
  C807     1.0000 0.89700  0.92900  0.46100  Biso   1.000  C
  H582     1.0000 0.90340  0.95780  0.47520  Biso   1.000  H
  H583     1.0000 0.68160  0.91650  0.30250  Biso   1.000  H
  C808     1.0000 0.67690  0.89850  0.47470  Biso   1.000  C
  C809     1.0000 0.63530  0.90430  0.44990  Biso   1.000  C
  H584     1.0000 0.63480  0.90510  0.41760  Biso   1.000  H
  C810     1.0000 0.59400  0.90700  0.47500  Biso   1.000  C
  H585     1.0000 0.56640  0.91180  0.46070  Biso   1.000  H
  Co46     1.0000 0.74850  0.10440  0.60350  Biso   1.000  Co
  C811     1.0000 0.77790  0.02320  0.66410  Biso   1.000  C
  C812     1.0000 0.79900  0.05350  0.69100  Biso   1.000  C
  H586     1.0000 0.80110  0.08230  0.70140  Biso   1.000  H
  C813     1.0000 0.82000  0.02900  0.73370  Biso   1.000  C
  H587     1.0000 0.83380  0.04020  0.75950  Biso   1.000  H
  C814     1.0000 0.85200  0.11400  0.59800  Biso   1.000  C
  C815     1.0000 0.86100  0.06900  0.59000  Biso   1.000  C
  H588     1.0000 0.84440  0.04000  0.58680  Biso   1.000  H
  C816     1.0000 0.91200  0.05400  0.58600  Biso   1.000  C
  H589     1.0000 0.92250  0.02240  0.58290  Biso   1.000  H
  C817     1.0000 0.68060  0.17290  0.64460  Biso   1.000  C
  C818     1.0000 0.68560  0.21170  0.61520  Biso   1.000  C
  H590     1.0000 0.70560  0.21540  0.59050  Biso   1.000  H
  C819     1.0000 0.65720  0.24990  0.62530  Biso   1.000  C
  H591     1.0000 0.67010  0.28360  0.61180  Biso   1.000  H
  C820     1.0000 0.68600  0.07700  0.52300  Biso   1.000  C
  C821     1.0000 0.65200  0.05800  0.54700  Biso   1.000  C
  H592     1.0000 0.64560  0.06020  0.58210  Biso   1.000  H
  C822     1.0000 0.61300  0.03200  0.52200  Biso   1.000  C
  H593     1.0000 0.59160  0.01620  0.53850  Biso   1.000  H
  N181     1.0000 0.75730  0.03850  0.62330  Biso   1.000  N
  N182     1.0000 0.80970  0.13390  0.60140  Biso   1.000  N
  N183     1.0000 0.70280  0.13010  0.64640  Biso   1.000  N
  N184     1.0000 0.72320  0.10060  0.53940  Biso   1.000  N
  C823     1.0000 0.84700  0.11800  0.57300  Biso   1.000  C
  C824     1.0000 0.85400  0.07600  0.55500  Biso   1.000  C
  H594     1.0000 0.83200  0.05020  0.55820  Biso   1.000  H
  C825     1.0000 0.89700  0.07100  0.53900  Biso   1.000  C
  H595     1.0000 0.90340  0.04220  0.52480  Biso   1.000  H
  H596     1.0000 0.68160  0.08350  0.69750  Biso   1.000  H
  C826     1.0000 0.67690  0.10150  0.52530  Biso   1.000  C
  C827     1.0000 0.63530  0.09570  0.55010  Biso   1.000  C
  H597     1.0000 0.63480  0.09490  0.58240  Biso   1.000  H
  C828     1.0000 0.59400  0.09300  0.52500  Biso   1.000  C
  H598     1.0000 0.56640  0.08820  0.53930  Biso   1.000  H
  Co47     1.0000 0.25150  0.89560  0.60350  Biso   1.000  Co
  C829     1.0000 0.22210  0.97680  0.66410  Biso   1.000  C
  C830     1.0000 0.20100  0.94650  0.69100  Biso   1.000  C
  H599     1.0000 0.19890  0.91770  0.70140  Biso   1.000  H
  C831     1.0000 0.18000  0.97100  0.73370  Biso   1.000  C
  H600     1.0000 0.16620  0.95980  0.75950  Biso   1.000  H
  C832     1.0000 0.14800  0.88600  0.59800  Biso   1.000  C
  C833     1.0000 0.13900  0.93100  0.59000  Biso   1.000  C
  H601     1.0000 0.15560  0.96000  0.58680  Biso   1.000  H
  C834     1.0000 0.08800  0.94600  0.58600  Biso   1.000  C
  H602     1.0000 0.07750  0.97760  0.58290  Biso   1.000  H
  C835     1.0000 0.31940  0.82710  0.64460  Biso   1.000  C
  C836     1.0000 0.31440  0.78830  0.61520  Biso   1.000  C
  H603     1.0000 0.29440  0.78460  0.59050  Biso   1.000  H
  C837     1.0000 0.34280  0.75010  0.62530  Biso   1.000  C
  H604     1.0000 0.32990  0.71640  0.61180  Biso   1.000  H
  C838     1.0000 0.31400  0.92300  0.52300  Biso   1.000  C
  C839     1.0000 0.34800  0.94200  0.54700  Biso   1.000  C
  H605     1.0000 0.35440  0.93980  0.58210  Biso   1.000  H
  C840     1.0000 0.38700  0.96800  0.52200  Biso   1.000  C
  H606     1.0000 0.40840  0.98380  0.53850  Biso   1.000  H
  N185     1.0000 0.24270  0.96150  0.62330  Biso   1.000  N
  N186     1.0000 0.19030  0.86610  0.60140  Biso   1.000  N
  N187     1.0000 0.29720  0.86990  0.64640  Biso   1.000  N
  N188     1.0000 0.27680  0.89940  0.53940  Biso   1.000  N
  C841     1.0000 0.15300  0.88200  0.57300  Biso   1.000  C
  C842     1.0000 0.14600  0.92400  0.55500  Biso   1.000  C
  H607     1.0000 0.16800  0.94980  0.55820  Biso   1.000  H
  C843     1.0000 0.10300  0.92900  0.53900  Biso   1.000  C
  H608     1.0000 0.09660  0.95780  0.52480  Biso   1.000  H
  H609     1.0000 0.31840  0.91650  0.69750  Biso   1.000  H
  C844     1.0000 0.32310  0.89850  0.52530  Biso   1.000  C
  C845     1.0000 0.36470  0.90430  0.55010  Biso   1.000  C
  H610     1.0000 0.36520  0.90510  0.58240  Biso   1.000  H
  C846     1.0000 0.40600  0.90700  0.52500  Biso   1.000  C
  H611     1.0000 0.43360  0.91180  0.53930  Biso   1.000  H
  Co48     1.0000 0.25150  0.10440  0.39650  Biso   1.000  Co
  C847     1.0000 0.22210  0.02320  0.33590  Biso   1.000  C
  C848     1.0000 0.20100  0.05350  0.30900  Biso   1.000  C
  H612     1.0000 0.19890  0.08230  0.29860  Biso   1.000  H
  C849     1.0000 0.18000  0.02900  0.26630  Biso   1.000  C
  H613     1.0000 0.16620  0.04020  0.24050  Biso   1.000  H
  C850     1.0000 0.14800  0.11400  0.40200  Biso   1.000  C
  C851     1.0000 0.13900  0.06900  0.41000  Biso   1.000  C
  H614     1.0000 0.15560  0.04000  0.41320  Biso   1.000  H
  C852     1.0000 0.08800  0.05400  0.41400  Biso   1.000  C
  H615     1.0000 0.07750  0.02240  0.41710  Biso   1.000  H
  C853     1.0000 0.31940  0.17290  0.35540  Biso   1.000  C
  C854     1.0000 0.31440  0.21170  0.38480  Biso   1.000  C
  H616     1.0000 0.29440  0.21540  0.40950  Biso   1.000  H
  C855     1.0000 0.34280  0.24990  0.37470  Biso   1.000  C
  H617     1.0000 0.32990  0.28360  0.38820  Biso   1.000  H
  C856     1.0000 0.31400  0.07700  0.47700  Biso   1.000  C
  C857     1.0000 0.34800  0.05800  0.45300  Biso   1.000  C
  H618     1.0000 0.35440  0.06020  0.41790  Biso   1.000  H
  C858     1.0000 0.38700  0.03200  0.47800  Biso   1.000  C
  H619     1.0000 0.40840  0.01620  0.46150  Biso   1.000  H
  N189     1.0000 0.24270  0.03850  0.37670  Biso   1.000  N
  N190     1.0000 0.19030  0.13390  0.39860  Biso   1.000  N
  N191     1.0000 0.29720  0.13010  0.35360  Biso   1.000  N
  N192     1.0000 0.27680  0.10060  0.46060  Biso   1.000  N
  C859     1.0000 0.15300  0.11800  0.42700  Biso   1.000  C
  C860     1.0000 0.14600  0.07600  0.44500  Biso   1.000  C
  H620     1.0000 0.16800  0.05020  0.44180  Biso   1.000  H
  C861     1.0000 0.10300  0.07100  0.46100  Biso   1.000  C
  H621     1.0000 0.09660  0.04220  0.47520  Biso   1.000  H
  H622     1.0000 0.31840  0.08350  0.30250  Biso   1.000  H
  C862     1.0000 0.32310  0.10150  0.47470  Biso   1.000  C
  C863     1.0000 0.36470  0.09570  0.44990  Biso   1.000  C
  H623     1.0000 0.36520  0.09490  0.41760  Biso   1.000  H
  C864     1.0000 0.40600  0.09300  0.47500  Biso   1.000  C
  H624     1.0000 0.43360  0.08820  0.46070  Biso   1.000  H
  C865     1.0000 0.40010  0.00000  0.25990  Biso   1.000  C
  H625     1.0000 0.42270  0.00000  0.27280  Biso   1.000  H
  C866     1.0000 0.59990  0.00000  0.25990  Biso   1.000  C
  H626     1.0000 0.57730  0.00000  0.27280  Biso   1.000  H
  C867     1.0000 0.59990  0.00000  0.74010  Biso   1.000  C
  H627     1.0000 0.57730  0.00000  0.72720  Biso   1.000  H
  C868     1.0000 0.40010  0.00000  0.74010  Biso   1.000  C
  H628     1.0000 0.42270  0.00000  0.72720  Biso   1.000  H
  C869     1.0000 0.25990  0.40010  0.00000  Biso   1.000  C
  H629     1.0000 0.27280  0.42270  0.00000  Biso   1.000  H
  C870     1.0000 0.25990  0.59990  0.00000  Biso   1.000  C
  H630     1.0000 0.27280  0.57730  0.00000  Biso   1.000  H
  C871     1.0000 0.74010  0.59990  0.00000  Biso   1.000  C
  H631     1.0000 0.72720  0.57730  0.00000  Biso   1.000  H
  C872     1.0000 0.74010  0.40010  0.00000  Biso   1.000  C
  H632     1.0000 0.72720  0.42270  0.00000  Biso   1.000  H
  C873     1.0000 0.00000  0.25990  0.40010  Biso   1.000  C
  H633     1.0000 0.00000  0.27280  0.42270  Biso   1.000  H
  C874     1.0000 0.00000  0.25990  0.59990  Biso   1.000  C
  H634     1.0000 0.00000  0.27280  0.57730  Biso   1.000  H
  C875     1.0000 0.00000  0.74010  0.59990  Biso   1.000  C
  H635     1.0000 0.00000  0.72720  0.57730  Biso   1.000  H
  C876     1.0000 0.00000  0.74010  0.40010  Biso   1.000  C
  H636     1.0000 0.00000  0.72720  0.42270  Biso   1.000  H
  C877     1.0000 0.00000  0.40010  0.74010  Biso   1.000  C
  H637     1.0000 0.00000  0.42270  0.72720  Biso   1.000  H
  C878     1.0000 0.00000  0.59990  0.74010  Biso   1.000  C
  H638     1.0000 0.00000  0.57730  0.72720  Biso   1.000  H
  C879     1.0000 0.00000  0.59990  0.25990  Biso   1.000  C
  H639     1.0000 0.00000  0.57730  0.27280  Biso   1.000  H
  C880     1.0000 0.00000  0.40010  0.25990  Biso   1.000  C
  H640     1.0000 0.00000  0.42270  0.27280  Biso   1.000  H
  C881     1.0000 0.40010  0.25990  0.00000  Biso   1.000  C
  H641     1.0000 0.42270  0.27280  0.00000  Biso   1.000  H
  C882     1.0000 0.59990  0.25990  0.00000  Biso   1.000  C
  H642     1.0000 0.57730  0.27280  0.00000  Biso   1.000  H
  C883     1.0000 0.59990  0.74010  0.00000  Biso   1.000  C
  H643     1.0000 0.57730  0.72720  0.00000  Biso   1.000  H
  C884     1.0000 0.40010  0.74010  0.00000  Biso   1.000  C
  H644     1.0000 0.42270  0.72720  0.00000  Biso   1.000  H
  C885     1.0000 0.25990  0.00000  0.59990  Biso   1.000  C
  H645     1.0000 0.27280  0.00000  0.57730  Biso   1.000  H
  C886     1.0000 0.25990  0.00000  0.40010  Biso   1.000  C
  H646     1.0000 0.27280  0.00000  0.42270  Biso   1.000  H
  C887     1.0000 0.74010  0.00000  0.40010  Biso   1.000  C
  H647     1.0000 0.72720  0.00000  0.42270  Biso   1.000  H
  C888     1.0000 0.74010  0.00000  0.59990  Biso   1.000  C
  H648     1.0000 0.72720  0.00000  0.57730  Biso   1.000  H
  C889     1.0000 0.39300  0.17930  0.17930  Biso   1.000  C
  H649     1.0000 0.37960  0.20070  0.20070  Biso   1.000  H
  C890     1.0000 0.60700  0.82070  0.17930  Biso   1.000  C
  H650     1.0000 0.62040  0.79930  0.20070  Biso   1.000  H
  C891     1.0000 0.60700  0.17930  0.82070  Biso   1.000  C
  H651     1.0000 0.62040  0.20070  0.79930  Biso   1.000  H
  C892     1.0000 0.39300  0.82070  0.82070  Biso   1.000  C
  H652     1.0000 0.37960  0.79930  0.79930  Biso   1.000  H
  C893     1.0000 0.17930  0.39300  0.17930  Biso   1.000  C
  H653     1.0000 0.20070  0.37960  0.20070  Biso   1.000  H
  C894     1.0000 0.17930  0.60700  0.82070  Biso   1.000  C
  H654     1.0000 0.20070  0.62040  0.79930  Biso   1.000  H
  C895     1.0000 0.82070  0.60700  0.17930  Biso   1.000  C
  H655     1.0000 0.79930  0.62040  0.20070  Biso   1.000  H
  C896     1.0000 0.82070  0.39300  0.82070  Biso   1.000  C
  H656     1.0000 0.79930  0.37960  0.79930  Biso   1.000  H
  C897     1.0000 0.17930  0.17930  0.39300  Biso   1.000  C
  H657     1.0000 0.20070  0.20070  0.37960  Biso   1.000  H
  C898     1.0000 0.82070  0.17930  0.60700  Biso   1.000  C
  H658     1.0000 0.79930  0.20070  0.62040  Biso   1.000  H
  C899     1.0000 0.17930  0.82070  0.60700  Biso   1.000  C
  H659     1.0000 0.20070  0.79930  0.62040  Biso   1.000  H
  C900     1.0000 0.82070  0.82070  0.39300  Biso   1.000  C
  H660     1.0000 0.79930  0.79930  0.37960  Biso   1.000  H
  C901     1.0000 0.17930  0.39300  0.82070  Biso   1.000  C
  H661     1.0000 0.20070  0.37960  0.79930  Biso   1.000  H
  C902     1.0000 0.82070  0.60700  0.82070  Biso   1.000  C
  H662     1.0000 0.79930  0.62040  0.79930  Biso   1.000  H
  C903     1.0000 0.17930  0.60700  0.17930  Biso   1.000  C
  H663     1.0000 0.20070  0.62040  0.20070  Biso   1.000  H
  C904     1.0000 0.82070  0.39300  0.17930  Biso   1.000  C
  H664     1.0000 0.79930  0.37960  0.20070  Biso   1.000  H
  C905     1.0000 0.39300  0.17930  0.82070  Biso   1.000  C
  H665     1.0000 0.37960  0.20070  0.79930  Biso   1.000  H
  C906     1.0000 0.60700  0.17930  0.17930  Biso   1.000  C
  H666     1.0000 0.62040  0.20070  0.20070  Biso   1.000  H
  C907     1.0000 0.60700  0.82070  0.82070  Biso   1.000  C
  H667     1.0000 0.62040  0.79930  0.79930  Biso   1.000  H
  C908     1.0000 0.39300  0.82070  0.17930  Biso   1.000  C
  H668     1.0000 0.37960  0.79930  0.20070  Biso   1.000  H
  C909     1.0000 0.17930  0.17930  0.60700  Biso   1.000  C
  H669     1.0000 0.20070  0.20070  0.62040  Biso   1.000  H
  C910     1.0000 0.17930  0.82070  0.39300  Biso   1.000  C
  H670     1.0000 0.20070  0.79930  0.37960  Biso   1.000  H
  C911     1.0000 0.82070  0.17930  0.39300  Biso   1.000  C
  H671     1.0000 0.79930  0.20070  0.37960  Biso   1.000  H
  C912     1.0000 0.82070  0.82070  0.60700  Biso   1.000  C
  H672     1.0000 0.79930  0.79930  0.62040  Biso   1.000  H
  C913     1.0000 0.32030  0.10900  0.32030  Biso   1.000  C
  C914     1.0000 0.67970  0.89100  0.32030  Biso   1.000  C
  C915     1.0000 0.67970  0.10900  0.67970  Biso   1.000  C
  C916     1.0000 0.32030  0.89100  0.67970  Biso   1.000  C
  C917     1.0000 0.32030  0.32030  0.10900  Biso   1.000  C
  C918     1.0000 0.32030  0.67970  0.89100  Biso   1.000  C
  C919     1.0000 0.67970  0.67970  0.10900  Biso   1.000  C
  C920     1.0000 0.67970  0.32030  0.89100  Biso   1.000  C
  C921     1.0000 0.10900  0.32030  0.32030  Biso   1.000  C
  C922     1.0000 0.89100  0.32030  0.67970  Biso   1.000  C
  C923     1.0000 0.10900  0.67970  0.67970  Biso   1.000  C
  C924     1.0000 0.89100  0.67970  0.32030  Biso   1.000  C
  C925     1.0000 0.10900  0.32030  0.67970  Biso   1.000  C
  C926     1.0000 0.89100  0.67970  0.67970  Biso   1.000  C
  C927     1.0000 0.10900  0.67970  0.32030  Biso   1.000  C
  C928     1.0000 0.89100  0.32030  0.32030  Biso   1.000  C
  C929     1.0000 0.32030  0.32030  0.89100  Biso   1.000  C
  C930     1.0000 0.67970  0.32030  0.10900  Biso   1.000  C
  C931     1.0000 0.67970  0.67970  0.89100  Biso   1.000  C
  C932     1.0000 0.32030  0.67970  0.10900  Biso   1.000  C
  C933     1.0000 0.32030  0.10900  0.67970  Biso   1.000  C
  C934     1.0000 0.32030  0.89100  0.32030  Biso   1.000  C
  C935     1.0000 0.67970  0.10900  0.32030  Biso   1.000  C
  C936     1.0000 0.67970  0.89100  0.67970  Biso   1.000  C
  C937     1.0000 0.50000  0.10650  0.25340  Biso   1.000  C
  H673     1.0000 0.50000  0.12150  0.22280  Biso   1.000  H
  C938     1.0000 0.50000  0.89350  0.25340  Biso   1.000  C
  H674     1.0000 0.50000  0.87850  0.22280  Biso   1.000  H
  C939     1.0000 0.50000  0.10650  0.74660  Biso   1.000  C
  H675     1.0000 0.50000  0.12150  0.77720  Biso   1.000  H
  C940     1.0000 0.50000  0.89350  0.74660  Biso   1.000  C
  H676     1.0000 0.50000  0.87850  0.77720  Biso   1.000  H
  C941     1.0000 0.25340  0.50000  0.10650  Biso   1.000  C
  H677     1.0000 0.22280  0.50000  0.12150  Biso   1.000  H
  C942     1.0000 0.25340  0.50000  0.89350  Biso   1.000  C
  H678     1.0000 0.22280  0.50000  0.87850  Biso   1.000  H
  C943     1.0000 0.74660  0.50000  0.10650  Biso   1.000  C
  H679     1.0000 0.77720  0.50000  0.12150  Biso   1.000  H
  C944     1.0000 0.74660  0.50000  0.89350  Biso   1.000  C
  H680     1.0000 0.77720  0.50000  0.87850  Biso   1.000  H
  C945     1.0000 0.10650  0.25340  0.50000  Biso   1.000  C
  H681     1.0000 0.12150  0.22280  0.50000  Biso   1.000  H
  C946     1.0000 0.89350  0.25340  0.50000  Biso   1.000  C
  H682     1.0000 0.87850  0.22280  0.50000  Biso   1.000  H
  C947     1.0000 0.10650  0.74660  0.50000  Biso   1.000  C
  H683     1.0000 0.12150  0.77720  0.50000  Biso   1.000  H
  C948     1.0000 0.89350  0.74660  0.50000  Biso   1.000  C
  H684     1.0000 0.87850  0.77720  0.50000  Biso   1.000  H
  C949     1.0000 0.10650  0.50000  0.74660  Biso   1.000  C
  H685     1.0000 0.12150  0.50000  0.77720  Biso   1.000  H
  C950     1.0000 0.89350  0.50000  0.74660  Biso   1.000  C
  H686     1.0000 0.87850  0.50000  0.77720  Biso   1.000  H
  C951     1.0000 0.10650  0.50000  0.25340  Biso   1.000  C
  H687     1.0000 0.12150  0.50000  0.22280  Biso   1.000  H
  C952     1.0000 0.89350  0.50000  0.25340  Biso   1.000  C
  H688     1.0000 0.87850  0.50000  0.22280  Biso   1.000  H
  C953     1.0000 0.50000  0.25340  0.89350  Biso   1.000  C
  H689     1.0000 0.50000  0.22280  0.87850  Biso   1.000  H
  C954     1.0000 0.50000  0.25340  0.10650  Biso   1.000  C
  H690     1.0000 0.50000  0.22280  0.12150  Biso   1.000  H
  C955     1.0000 0.50000  0.74660  0.89350  Biso   1.000  C
  H691     1.0000 0.50000  0.77720  0.87850  Biso   1.000  H
  C956     1.0000 0.50000  0.74660  0.10650  Biso   1.000  C
  H692     1.0000 0.50000  0.77720  0.12150  Biso   1.000  H
  C957     1.0000 0.25340  0.10650  0.50000  Biso   1.000  C
  H693     1.0000 0.22280  0.12150  0.50000  Biso   1.000  H
  C958     1.0000 0.25340  0.89350  0.50000  Biso   1.000  C
  H694     1.0000 0.22280  0.87850  0.50000  Biso   1.000  H
  C959     1.0000 0.74660  0.10650  0.50000  Biso   1.000  C
  H695     1.0000 0.77720  0.12150  0.50000  Biso   1.000  H
  C960     1.0000 0.74660  0.89350  0.50000  Biso   1.000  C
  H696     1.0000 0.77720  0.87850  0.50000  Biso   1.000  H
