data_image0
_cell_length_a       37.856
_cell_length_b       14.1562
_cell_length_c       28.44
_cell_angle_alpha    90
_cell_angle_beta     131.399
_cell_angle_gamma    90

_symmetry_space_group_name_H-M    "P 1"
_symmetry_int_tables_number       1

loop_
  _symmetry_equiv_pos_as_xyz
  'x, y, z'

loop_
  _atom_site_label
  _atom_site_occupancy
  _atom_site_fract_x
  _atom_site_fract_y
  _atom_site_fract_z
  _atom_site_thermal_displace_type
  _atom_site_B_iso_or_equiv
  _atom_site_type_symbol
  Ru1      1.0000 0.78980  0.24479  0.03286  Biso   1.000  Ru
  Ru2      1.0000 0.00837  0.00326  0.04631  Biso   1.000  Ru
  Mo1      1.0000 0.97962  0.31585  0.15155  Biso   1.000  Mo
  Mo2      1.0000 0.90104  0.13523  0.08624  Biso   1.000  Mo
  Mo3      1.0000 0.90789  0.29405  0.18345  Biso   1.000  Mo
  Mo4      1.0000 0.90915  0.96139  0.19087  Biso   1.000  Mo
  Mo5      1.0000 0.98801  0.93924  0.15685  Biso   1.000  Mo
  Mo6      1.0000 0.06359  0.11991  0.19868  Biso   1.000  Mo
  O1       1.0000 0.79240  0.22990  0.10520  Biso   1.000  O
  O2       1.0000 0.78360  0.10310  0.02050  Biso   1.000  O
  O3       1.0000 0.70550  0.11310  0.95650  Biso   1.000  O
  O4       1.0000 0.71420  0.23850  0.04100  Biso   1.000  O
  O5       1.0000 0.01830  0.86160  0.05540  Biso   1.000  O
  O6       1.0000 0.07630  0.02690  0.09030  Biso   1.000  O
  O7       1.0000 0.00230  0.85650  0.96470  Biso   1.000  O
  O8       1.0000 0.06020  0.02110  0.00000  Biso   1.000  O
  O9       1.0000 0.96300  0.18940  0.19340  Biso   1.000  O
  O10      1.0000 0.97590  0.06500  0.26570  Biso   1.000  O
  O11      1.0000 0.92800  0.23740  0.08010  Biso   1.000  O
  O12      1.0000 0.87120  0.23110  0.10500  Biso   1.000  O
  O13      1.0000 0.93680  0.36630  0.15500  Biso   1.000  O
  O14      1.0000 0.88940  0.04980  0.13160  Biso   1.000  O
  O15      1.0000 0.95280  0.91880  0.17900  Biso   1.000  O
  O16      1.0000 0.94240  0.04560  0.10470  Biso   1.000  O
  O17      1.0000 0.89480  0.02560  0.23320  Biso   1.000  O
  O18      1.0000 0.95700  0.88920  0.27300  Biso   1.000  O
  O19      1.0000 0.02620  0.01810  0.14460  Biso   1.000  O
  O20      1.0000 0.01790  0.21020  0.15740  Biso   1.000  O
  O21      1.0000 0.09470  0.20370  0.27390  Biso   1.000  O
  O22      1.0000 0.03310  0.33550  0.23400  Biso   1.000  O
  C1       1.0000 0.75390  0.22870  0.09490  Biso   1.000  C
  C2       1.0000 0.75750  0.21310  0.15130  Biso   1.000  C
  C3       1.0000 0.77600  0.10990  0.17330  Biso   1.000  C
  H1       1.0000 0.75410  0.06610  0.13880  Biso   1.000  H
  H2       1.0000 0.77840  0.09450  0.20890  Biso   1.000  H
  H3       1.0000 0.80710  0.10450  0.18600  Biso   1.000  H
  C4       1.0000 0.70990  0.22200  0.13130  Biso   1.000  C
  H4       1.0000 0.69840  0.28680  0.11720  Biso   1.000  H
  H5       1.0000 0.71200  0.20730  0.16680  Biso   1.000  H
  H6       1.0000 0.68810  0.17790  0.09690  Biso   1.000  H
  C5       1.0000 0.79470  0.27780  0.20320  Biso   1.000  C
  H7       1.0000 0.79940  0.26470  0.24090  Biso   1.000  H
  H8       1.0000 0.78470  0.34360  0.19040  Biso   1.000  H
  H9       1.0000 0.82430  0.26750  0.21220  Biso   1.000  H
  C6       1.0000 0.74310  0.06550  0.98360  Biso   1.000  C
  C7       1.0000 0.74040  0.95920  0.98330  Biso   1.000  C
  C8       1.0000 0.74840  0.92500  0.03980  Biso   1.000  C
  H10      1.0000 0.77970  0.89640  0.06970  Biso   1.000  H
  H11      1.0000 0.72440  0.87790  0.02670  Biso   1.000  H
  H12      1.0000 0.74620  0.97840  0.05970  Biso   1.000  H
  C9       1.0000 0.69550  0.92200  0.93490  Biso   1.000  C
  H13      1.0000 0.67200  0.95630  0.93270  Biso   1.000  H
  H14      1.0000 0.69500  0.85490  0.94320  Biso   1.000  H
  H15      1.0000 0.68830  0.92830  0.89500  Biso   1.000  H
  C10      1.0000 0.77540  0.92300  0.98130  Biso   1.000  C
  H16      1.0000 0.80700  0.93970  0.02020  Biso   1.000  H
  H17      1.0000 0.77010  0.95050  0.94550  Biso   1.000  H
  H18      1.0000 0.77270  0.85390  0.97690  Biso   1.000  H
  C11      1.0000 0.01220  0.81650  0.01230  Biso   1.000  C
  C12      1.0000 0.01610  0.70880  0.01620  Biso   1.000  C
  C13      1.0000 0.01740  0.67420  0.06810  Biso   1.000  C
  H19      1.0000 0.98840  0.69350  0.05870  Biso   1.000  H
  H20      1.0000 0.04460  0.70170  0.10820  Biso   1.000  H
  H21      1.0000 0.01990  0.60510  0.07070  Biso   1.000  H
  C14      1.0000 0.97370  0.66760  0.95290  Biso   1.000  C
  H22      1.0000 0.97340  0.69050  0.92020  Biso   1.000  H
  H23      1.0000 0.94460  0.68730  0.94320  Biso   1.000  H
  H24      1.0000 0.97570  0.59850  0.95480  Biso   1.000  H
  C15      1.0000 0.06050  0.68270  0.02930  Biso   1.000  C
  H25      1.0000 0.08770  0.71120  0.06900  Biso   1.000  H
  H26      1.0000 0.05870  0.70610  0.99530  Biso   1.000  H
  H27      1.0000 0.06400  0.61390  0.03200  Biso   1.000  H
  C16      1.0000 0.08820  0.03650  0.05800  Biso   1.000  C
  C17      1.0000 0.13770  0.07210  0.08980  Biso   1.000  C
  C18      1.0000 0.16470  0.95800  0.11520  Biso   1.000  C
  H28      1.0000 0.15160  0.91880  0.07860  Biso   1.000  H
  H29      1.0000 0.15870  0.92870  0.14040  Biso   1.000  H
  H30      1.0000 0.19880  0.96510  0.14060  Biso   1.000  H
  C19      1.0000 0.14010  0.10000  0.04260  Biso   1.000  C
  H31      1.0000 0.12390  0.05260  0.00900  Biso   1.000  H
  H32      1.0000 0.17310  0.10400  0.06200  Biso   1.000  H
  H33      1.0000 0.12490  0.16140  0.02510  Biso   1.000  H
  C20      1.0000 0.15870  0.12500  0.14470  Biso   1.000  C
  H34      1.0000 0.15340  0.09280  0.17020  Biso   1.000  H
  H35      1.0000 0.14480  0.18790  0.13350  Biso   1.000  H
  H36      1.0000 0.19260  0.12990  0.16880  Biso   1.000  H
  C21      1.0000 0.78270  0.90700  0.00780  Biso   1.000  C
  H37      1.0000 0.80710  0.94890  0.04230  Biso   1.000  H
  H38      1.0000 0.79440  0.87840  0.98900  Biso   1.000  H
  H39      1.0000 0.77500  0.85800  0.02380  Biso   1.000  H
  C22      1.0000 0.68740  0.93400  0.91980  Biso   1.000  C
  H40      1.0000 0.68350  0.87030  0.90300  Biso   1.000  H
  H41      1.0000 0.66620  0.97770  0.88500  Biso   1.000  H
  H42      1.0000 0.68000  0.93240  0.94680  Biso   1.000  H
  C23      1.0000 0.73820  0.96590  0.95770  Biso   1.000  C
  C24      1.0000 0.73620  0.98120  0.90080  Biso   1.000  C
  H43      1.0000 0.76310  0.94960  0.90970  Biso   1.000  H
  H44      1.0000 0.73740  0.04900  0.89480  Biso   1.000  H
  H45      1.0000 0.70690  0.95460  0.86260  Biso   1.000  H
  C25      1.0000 0.15060  0.07700  0.05340  Biso   1.000  C
  H46      1.0000 0.12310  0.09450  0.01030  Biso   1.000  H
  H47      1.0000 0.16220  0.01500  0.05340  Biso   1.000  H
  H48      1.0000 0.17540  0.12410  0.07120  Biso   1.000  H
  C26      1.0000 0.17500  0.04500  0.15750  Biso   1.000  C
  H49      1.0000 0.16170  0.04610  0.17760  Biso   1.000  H
  H50      1.0000 0.20110  0.09010  0.17870  Biso   1.000  H
  H51      1.0000 0.18650  0.98140  0.16060  Biso   1.000  H
  C27      1.0000 0.12800  0.19300  0.09290  Biso   1.000  C
  H52      1.0000 0.11890  0.20130  0.11780  Biso   1.000  H
  H53      1.0000 0.10280  0.21660  0.05030  Biso   1.000  H
  H54      1.0000 0.15700  0.22850  0.11220  Biso   1.000  H
  Ru3      1.0000 0.28980  0.74479  0.03286  Biso   1.000  Ru
  Ru4      1.0000 0.50837  0.50326  0.04631  Biso   1.000  Ru
  Mo7      1.0000 0.47962  0.81585  0.15155  Biso   1.000  Mo
  Mo8      1.0000 0.40104  0.63523  0.08624  Biso   1.000  Mo
  Mo9      1.0000 0.40789  0.79405  0.18345  Biso   1.000  Mo
  Mo10     1.0000 0.40915  0.46139  0.19087  Biso   1.000  Mo
  Mo11     1.0000 0.48801  0.43924  0.15685  Biso   1.000  Mo
  Mo12     1.0000 0.56359  0.61991  0.19868  Biso   1.000  Mo
  O23      1.0000 0.29240  0.72990  0.10520  Biso   1.000  O
  O24      1.0000 0.28360  0.60310  0.02050  Biso   1.000  O
  O25      1.0000 0.20550  0.61310  0.95650  Biso   1.000  O
  O26      1.0000 0.21420  0.73850  0.04100  Biso   1.000  O
  O27      1.0000 0.51830  0.36160  0.05540  Biso   1.000  O
  O28      1.0000 0.57630  0.52690  0.09030  Biso   1.000  O
  O29      1.0000 0.50230  0.35650  0.96470  Biso   1.000  O
  O30      1.0000 0.56020  0.52110  0.00000  Biso   1.000  O
  O31      1.0000 0.46300  0.68940  0.19340  Biso   1.000  O
  O32      1.0000 0.47590  0.56500  0.26570  Biso   1.000  O
  O33      1.0000 0.42800  0.73740  0.08010  Biso   1.000  O
  O34      1.0000 0.37120  0.73110  0.10500  Biso   1.000  O
  O35      1.0000 0.43680  0.86630  0.15500  Biso   1.000  O
  O36      1.0000 0.38940  0.54980  0.13160  Biso   1.000  O
  O37      1.0000 0.45280  0.41880  0.17900  Biso   1.000  O
  O38      1.0000 0.44240  0.54560  0.10470  Biso   1.000  O
  O39      1.0000 0.39480  0.52560  0.23320  Biso   1.000  O
  O40      1.0000 0.45700  0.38920  0.27300  Biso   1.000  O
  O41      1.0000 0.52620  0.51810  0.14460  Biso   1.000  O
  O42      1.0000 0.51790  0.71020  0.15740  Biso   1.000  O
  O43      1.0000 0.59470  0.70370  0.27390  Biso   1.000  O
  O44      1.0000 0.53310  0.83550  0.23400  Biso   1.000  O
  C28      1.0000 0.25390  0.72870  0.09490  Biso   1.000  C
  C29      1.0000 0.25750  0.71310  0.15130  Biso   1.000  C
  C30      1.0000 0.27600  0.60990  0.17330  Biso   1.000  C
  H55      1.0000 0.25410  0.56610  0.13880  Biso   1.000  H
  H56      1.0000 0.27840  0.59450  0.20890  Biso   1.000  H
  H57      1.0000 0.30710  0.60450  0.18600  Biso   1.000  H
  C31      1.0000 0.20990  0.72200  0.13130  Biso   1.000  C
  H58      1.0000 0.19840  0.78680  0.11720  Biso   1.000  H
  H59      1.0000 0.21200  0.70730  0.16680  Biso   1.000  H
  H60      1.0000 0.18810  0.67790  0.09690  Biso   1.000  H
  C32      1.0000 0.29470  0.77780  0.20320  Biso   1.000  C
  H61      1.0000 0.29940  0.76470  0.24090  Biso   1.000  H
  H62      1.0000 0.28470  0.84360  0.19040  Biso   1.000  H
  H63      1.0000 0.32430  0.76750  0.21220  Biso   1.000  H
  C33      1.0000 0.24310  0.56550  0.98360  Biso   1.000  C
  C34      1.0000 0.24040  0.45920  0.98330  Biso   1.000  C
  C35      1.0000 0.24840  0.42500  0.03980  Biso   1.000  C
  H64      1.0000 0.27970  0.39640  0.06970  Biso   1.000  H
  H65      1.0000 0.22440  0.37790  0.02670  Biso   1.000  H
  H66      1.0000 0.24620  0.47840  0.05970  Biso   1.000  H
  C36      1.0000 0.19550  0.42200  0.93490  Biso   1.000  C
  H67      1.0000 0.17200  0.45630  0.93270  Biso   1.000  H
  H68      1.0000 0.19500  0.35490  0.94320  Biso   1.000  H
  H69      1.0000 0.18830  0.42830  0.89500  Biso   1.000  H
  C37      1.0000 0.27540  0.42300  0.98130  Biso   1.000  C
  H70      1.0000 0.30700  0.43970  0.02020  Biso   1.000  H
  H71      1.0000 0.27010  0.45050  0.94550  Biso   1.000  H
  H72      1.0000 0.27270  0.35390  0.97690  Biso   1.000  H
  C38      1.0000 0.51220  0.31650  0.01230  Biso   1.000  C
  C39      1.0000 0.51610  0.20880  0.01620  Biso   1.000  C
  C40      1.0000 0.51740  0.17420  0.06810  Biso   1.000  C
  H73      1.0000 0.48840  0.19350  0.05870  Biso   1.000  H
  H74      1.0000 0.54460  0.20170  0.10820  Biso   1.000  H
  H75      1.0000 0.51990  0.10510  0.07070  Biso   1.000  H
  C41      1.0000 0.47370  0.16760  0.95290  Biso   1.000  C
  H76      1.0000 0.47340  0.19050  0.92020  Biso   1.000  H
  H77      1.0000 0.44460  0.18730  0.94320  Biso   1.000  H
  H78      1.0000 0.47570  0.09850  0.95480  Biso   1.000  H
  C42      1.0000 0.56050  0.18270  0.02930  Biso   1.000  C
  H79      1.0000 0.58770  0.21120  0.06900  Biso   1.000  H
  H80      1.0000 0.55870  0.20610  0.99530  Biso   1.000  H
  H81      1.0000 0.56400  0.11390  0.03200  Biso   1.000  H
  C43      1.0000 0.58820  0.53650  0.05800  Biso   1.000  C
  C44      1.0000 0.63770  0.57210  0.08980  Biso   1.000  C
  C45      1.0000 0.66470  0.45800  0.11520  Biso   1.000  C
  H82      1.0000 0.65160  0.41880  0.07860  Biso   1.000  H
  H83      1.0000 0.65870  0.42870  0.14040  Biso   1.000  H
  H84      1.0000 0.69880  0.46510  0.14060  Biso   1.000  H
  C46      1.0000 0.64010  0.60000  0.04260  Biso   1.000  C
  H85      1.0000 0.62390  0.55260  0.00900  Biso   1.000  H
  H86      1.0000 0.67310  0.60400  0.06200  Biso   1.000  H
  H87      1.0000 0.62490  0.66140  0.02510  Biso   1.000  H
  C47      1.0000 0.65870  0.62500  0.14470  Biso   1.000  C
  H88      1.0000 0.65340  0.59280  0.17020  Biso   1.000  H
  H89      1.0000 0.64480  0.68790  0.13350  Biso   1.000  H
  H90      1.0000 0.69260  0.62990  0.16880  Biso   1.000  H
  C48      1.0000 0.28270  0.40700  0.00780  Biso   1.000  C
  H91      1.0000 0.30710  0.44890  0.04230  Biso   1.000  H
  H92      1.0000 0.29440  0.37840  0.98900  Biso   1.000  H
  H93      1.0000 0.27500  0.35800  0.02380  Biso   1.000  H
  C49      1.0000 0.18740  0.43400  0.91980  Biso   1.000  C
  H94      1.0000 0.18350  0.37030  0.90300  Biso   1.000  H
  H95      1.0000 0.16620  0.47770  0.88500  Biso   1.000  H
  H96      1.0000 0.18000  0.43240  0.94680  Biso   1.000  H
  C50      1.0000 0.23820  0.46590  0.95770  Biso   1.000  C
  C51      1.0000 0.23620  0.48120  0.90080  Biso   1.000  C
  H97      1.0000 0.26310  0.44960  0.90970  Biso   1.000  H
  H98      1.0000 0.23740  0.54900  0.89480  Biso   1.000  H
  H99      1.0000 0.20690  0.45460  0.86260  Biso   1.000  H
  C52      1.0000 0.65060  0.57700  0.05340  Biso   1.000  C
  H100     1.0000 0.62310  0.59450  0.01030  Biso   1.000  H
  H101     1.0000 0.66220  0.51500  0.05340  Biso   1.000  H
  H102     1.0000 0.67540  0.62410  0.07120  Biso   1.000  H
  C53      1.0000 0.67500  0.54500  0.15750  Biso   1.000  C
  H103     1.0000 0.66170  0.54610  0.17760  Biso   1.000  H
  H104     1.0000 0.70110  0.59010  0.17870  Biso   1.000  H
  H105     1.0000 0.68650  0.48140  0.16060  Biso   1.000  H
  C54      1.0000 0.62800  0.69300  0.09290  Biso   1.000  C
  H106     1.0000 0.61890  0.70130  0.11780  Biso   1.000  H
  H107     1.0000 0.60280  0.71660  0.05030  Biso   1.000  H
  H108     1.0000 0.65700  0.72850  0.11220  Biso   1.000  H
  Ru5      1.0000 0.21020  0.24479  0.46714  Biso   1.000  Ru
  Ru6      1.0000 0.99163  0.00326  0.45369  Biso   1.000  Ru
  Mo13     1.0000 0.02038  0.31585  0.34845  Biso   1.000  Mo
  Mo14     1.0000 0.09896  0.13523  0.41376  Biso   1.000  Mo
  Mo15     1.0000 0.09211  0.29405  0.31655  Biso   1.000  Mo
  Mo16     1.0000 0.09085  0.96139  0.30913  Biso   1.000  Mo
  Mo17     1.0000 0.01199  0.93924  0.34315  Biso   1.000  Mo
  Mo18     1.0000 0.93641  0.11991  0.30132  Biso   1.000  Mo
  O45      1.0000 0.20760  0.22990  0.39480  Biso   1.000  O
  O46      1.0000 0.21640  0.10310  0.47950  Biso   1.000  O
  O47      1.0000 0.29450  0.11310  0.54350  Biso   1.000  O
  O48      1.0000 0.28580  0.23850  0.45900  Biso   1.000  O
  O49      1.0000 0.98170  0.86160  0.44460  Biso   1.000  O
  O50      1.0000 0.92370  0.02690  0.40970  Biso   1.000  O
  O51      1.0000 0.99770  0.85650  0.53530  Biso   1.000  O
  O52      1.0000 0.93980  0.02110  0.50000  Biso   1.000  O
  O53      1.0000 0.03700  0.18940  0.30660  Biso   1.000  O
  O54      1.0000 0.02410  0.06500  0.23430  Biso   1.000  O
  O55      1.0000 0.07200  0.23740  0.41990  Biso   1.000  O
  O56      1.0000 0.12880  0.23110  0.39500  Biso   1.000  O
  O57      1.0000 0.06320  0.36630  0.34500  Biso   1.000  O
  O58      1.0000 0.11060  0.04980  0.36840  Biso   1.000  O
  O59      1.0000 0.04720  0.91880  0.32100  Biso   1.000  O
  O60      1.0000 0.05760  0.04560  0.39530  Biso   1.000  O
  O61      1.0000 0.10520  0.02560  0.26680  Biso   1.000  O
  O62      1.0000 0.04300  0.88920  0.22700  Biso   1.000  O
  O63      1.0000 0.97380  0.01810  0.35540  Biso   1.000  O
  O64      1.0000 0.98210  0.21020  0.34260  Biso   1.000  O
  O65      1.0000 0.90530  0.20370  0.22610  Biso   1.000  O
  O66      1.0000 0.96690  0.33550  0.26600  Biso   1.000  O
  C55      1.0000 0.24610  0.22870  0.40510  Biso   1.000  C
  C56      1.0000 0.24250  0.21310  0.34870  Biso   1.000  C
  C57      1.0000 0.22400  0.10990  0.32670  Biso   1.000  C
  H109     1.0000 0.24590  0.06610  0.36120  Biso   1.000  H
  H110     1.0000 0.22160  0.09450  0.29110  Biso   1.000  H
  H111     1.0000 0.19290  0.10450  0.31400  Biso   1.000  H
  C58      1.0000 0.29010  0.22200  0.36870  Biso   1.000  C
  H112     1.0000 0.30160  0.28680  0.38280  Biso   1.000  H
  H113     1.0000 0.28800  0.20730  0.33320  Biso   1.000  H
  H114     1.0000 0.31190  0.17790  0.40310  Biso   1.000  H
  C59      1.0000 0.20530  0.27780  0.29680  Biso   1.000  C
  H115     1.0000 0.20060  0.26470  0.25910  Biso   1.000  H
  H116     1.0000 0.21530  0.34360  0.30960  Biso   1.000  H
  H117     1.0000 0.17570  0.26750  0.28780  Biso   1.000  H
  C60      1.0000 0.25690  0.06550  0.51640  Biso   1.000  C
  C61      1.0000 0.25960  0.95920  0.51670  Biso   1.000  C
  C62      1.0000 0.25160  0.92500  0.46020  Biso   1.000  C
  H118     1.0000 0.22030  0.89640  0.43030  Biso   1.000  H
  H119     1.0000 0.27560  0.87790  0.47330  Biso   1.000  H
  H120     1.0000 0.25380  0.97840  0.44030  Biso   1.000  H
  C63      1.0000 0.30450  0.92200  0.56510  Biso   1.000  C
  H121     1.0000 0.32800  0.95630  0.56730  Biso   1.000  H
  H122     1.0000 0.30500  0.85490  0.55680  Biso   1.000  H
  H123     1.0000 0.31170  0.92830  0.60500  Biso   1.000  H
  C64      1.0000 0.22460  0.92300  0.51870  Biso   1.000  C
  H124     1.0000 0.19300  0.93970  0.47980  Biso   1.000  H
  H125     1.0000 0.22990  0.95050  0.55450  Biso   1.000  H
  H126     1.0000 0.22730  0.85390  0.52310  Biso   1.000  H
  C65      1.0000 0.98780  0.81650  0.48770  Biso   1.000  C
  C66      1.0000 0.98390  0.70880  0.48380  Biso   1.000  C
  C67      1.0000 0.98260  0.67420  0.43190  Biso   1.000  C
  H127     1.0000 0.01160  0.69350  0.44130  Biso   1.000  H
  H128     1.0000 0.95540  0.70170  0.39180  Biso   1.000  H
  H129     1.0000 0.98010  0.60510  0.42930  Biso   1.000  H
  C68      1.0000 0.02630  0.66760  0.54710  Biso   1.000  C
  H130     1.0000 0.02660  0.69050  0.57980  Biso   1.000  H
  H131     1.0000 0.05540  0.68730  0.55680  Biso   1.000  H
  H132     1.0000 0.02430  0.59850  0.54520  Biso   1.000  H
  C69      1.0000 0.93950  0.68270  0.47070  Biso   1.000  C
  H133     1.0000 0.91230  0.71120  0.43100  Biso   1.000  H
  H134     1.0000 0.94130  0.70610  0.50470  Biso   1.000  H
  H135     1.0000 0.93600  0.61390  0.46800  Biso   1.000  H
  C70      1.0000 0.91180  0.03650  0.44200  Biso   1.000  C
  C71      1.0000 0.86230  0.07210  0.41020  Biso   1.000  C
  C72      1.0000 0.83530  0.95800  0.38480  Biso   1.000  C
  H136     1.0000 0.84840  0.91880  0.42140  Biso   1.000  H
  H137     1.0000 0.84130  0.92870  0.35960  Biso   1.000  H
  H138     1.0000 0.80120  0.96510  0.35940  Biso   1.000  H
  C73      1.0000 0.85990  0.10000  0.45740  Biso   1.000  C
  H139     1.0000 0.87610  0.05260  0.49100  Biso   1.000  H
  H140     1.0000 0.82690  0.10400  0.43800  Biso   1.000  H
  H141     1.0000 0.87510  0.16140  0.47490  Biso   1.000  H
  C74      1.0000 0.84130  0.12500  0.35530  Biso   1.000  C
  H142     1.0000 0.84660  0.09280  0.32980  Biso   1.000  H
  H143     1.0000 0.85520  0.18790  0.36650  Biso   1.000  H
  H144     1.0000 0.80740  0.12990  0.33120  Biso   1.000  H
  C75      1.0000 0.21730  0.90700  0.49220  Biso   1.000  C
  H145     1.0000 0.19290  0.94890  0.45770  Biso   1.000  H
  H146     1.0000 0.20560  0.87840  0.51100  Biso   1.000  H
  H147     1.0000 0.22500  0.85800  0.47620  Biso   1.000  H
  C76      1.0000 0.31260  0.93400  0.58020  Biso   1.000  C
  H148     1.0000 0.31650  0.87030  0.59700  Biso   1.000  H
  H149     1.0000 0.33380  0.97770  0.61500  Biso   1.000  H
  H150     1.0000 0.32000  0.93240  0.55320  Biso   1.000  H
  C77      1.0000 0.26180  0.96590  0.54230  Biso   1.000  C
  C78      1.0000 0.26380  0.98120  0.59920  Biso   1.000  C
  H151     1.0000 0.23690  0.94960  0.59030  Biso   1.000  H
  H152     1.0000 0.26260  0.04900  0.60520  Biso   1.000  H
  H153     1.0000 0.29310  0.95460  0.63740  Biso   1.000  H
  C79      1.0000 0.84940  0.07700  0.44660  Biso   1.000  C
  H154     1.0000 0.87690  0.09450  0.48970  Biso   1.000  H
  H155     1.0000 0.83780  0.01500  0.44660  Biso   1.000  H
  H156     1.0000 0.82460  0.12410  0.42880  Biso   1.000  H
  C80      1.0000 0.82500  0.04500  0.34250  Biso   1.000  C
  H157     1.0000 0.83830  0.04610  0.32240  Biso   1.000  H
  H158     1.0000 0.79890  0.09010  0.32130  Biso   1.000  H
  H159     1.0000 0.81350  0.98140  0.33940  Biso   1.000  H
  C81      1.0000 0.87200  0.19300  0.40710  Biso   1.000  C
  H160     1.0000 0.88110  0.20130  0.38220  Biso   1.000  H
  H161     1.0000 0.89720  0.21660  0.44970  Biso   1.000  H
  H162     1.0000 0.84300  0.22850  0.38780  Biso   1.000  H
  Ru7      1.0000 0.71020  0.74479  0.46714  Biso   1.000  Ru
  Ru8      1.0000 0.49163  0.50326  0.45369  Biso   1.000  Ru
  Mo19     1.0000 0.52038  0.81585  0.34845  Biso   1.000  Mo
  Mo20     1.0000 0.59896  0.63523  0.41376  Biso   1.000  Mo
  Mo21     1.0000 0.59211  0.79405  0.31655  Biso   1.000  Mo
  Mo22     1.0000 0.59085  0.46139  0.30913  Biso   1.000  Mo
  Mo23     1.0000 0.51199  0.43924  0.34315  Biso   1.000  Mo
  Mo24     1.0000 0.43641  0.61991  0.30132  Biso   1.000  Mo
  O67      1.0000 0.70760  0.72990  0.39480  Biso   1.000  O
  O68      1.0000 0.71640  0.60310  0.47950  Biso   1.000  O
  O69      1.0000 0.79450  0.61310  0.54350  Biso   1.000  O
  O70      1.0000 0.78580  0.73850  0.45900  Biso   1.000  O
  O71      1.0000 0.48170  0.36160  0.44460  Biso   1.000  O
  O72      1.0000 0.42370  0.52690  0.40970  Biso   1.000  O
  O73      1.0000 0.49770  0.35650  0.53530  Biso   1.000  O
  O74      1.0000 0.43980  0.52110  0.50000  Biso   1.000  O
  O75      1.0000 0.53700  0.68940  0.30660  Biso   1.000  O
  O76      1.0000 0.52410  0.56500  0.23430  Biso   1.000  O
  O77      1.0000 0.57200  0.73740  0.41990  Biso   1.000  O
  O78      1.0000 0.62880  0.73110  0.39500  Biso   1.000  O
  O79      1.0000 0.56320  0.86630  0.34500  Biso   1.000  O
  O80      1.0000 0.61060  0.54980  0.36840  Biso   1.000  O
  O81      1.0000 0.54720  0.41880  0.32100  Biso   1.000  O
  O82      1.0000 0.55760  0.54560  0.39530  Biso   1.000  O
  O83      1.0000 0.60520  0.52560  0.26680  Biso   1.000  O
  O84      1.0000 0.54300  0.38920  0.22700  Biso   1.000  O
  O85      1.0000 0.47380  0.51810  0.35540  Biso   1.000  O
  O86      1.0000 0.48210  0.71020  0.34260  Biso   1.000  O
  O87      1.0000 0.40530  0.70370  0.22610  Biso   1.000  O
  O88      1.0000 0.46690  0.83550  0.26600  Biso   1.000  O
  C82      1.0000 0.74610  0.72870  0.40510  Biso   1.000  C
  C83      1.0000 0.74250  0.71310  0.34870  Biso   1.000  C
  C84      1.0000 0.72400  0.60990  0.32670  Biso   1.000  C
  H163     1.0000 0.74590  0.56610  0.36120  Biso   1.000  H
  H164     1.0000 0.72160  0.59450  0.29110  Biso   1.000  H
  H165     1.0000 0.69290  0.60450  0.31400  Biso   1.000  H
  C85      1.0000 0.79010  0.72200  0.36870  Biso   1.000  C
  H166     1.0000 0.80160  0.78680  0.38280  Biso   1.000  H
  H167     1.0000 0.78800  0.70730  0.33320  Biso   1.000  H
  H168     1.0000 0.81190  0.67790  0.40310  Biso   1.000  H
  C86      1.0000 0.70530  0.77780  0.29680  Biso   1.000  C
  H169     1.0000 0.70060  0.76470  0.25910  Biso   1.000  H
  H170     1.0000 0.71530  0.84360  0.30960  Biso   1.000  H
  H171     1.0000 0.67570  0.76750  0.28780  Biso   1.000  H
  C87      1.0000 0.75690  0.56550  0.51640  Biso   1.000  C
  C88      1.0000 0.75960  0.45920  0.51670  Biso   1.000  C
  C89      1.0000 0.75160  0.42500  0.46020  Biso   1.000  C
  H172     1.0000 0.72030  0.39640  0.43030  Biso   1.000  H
  H173     1.0000 0.77560  0.37790  0.47330  Biso   1.000  H
  H174     1.0000 0.75380  0.47840  0.44030  Biso   1.000  H
  C90      1.0000 0.80450  0.42200  0.56510  Biso   1.000  C
  H175     1.0000 0.82800  0.45630  0.56730  Biso   1.000  H
  H176     1.0000 0.80500  0.35490  0.55680  Biso   1.000  H
  H177     1.0000 0.81170  0.42830  0.60500  Biso   1.000  H
  C91      1.0000 0.72460  0.42300  0.51870  Biso   1.000  C
  H178     1.0000 0.69300  0.43970  0.47980  Biso   1.000  H
  H179     1.0000 0.72990  0.45050  0.55450  Biso   1.000  H
  H180     1.0000 0.72730  0.35390  0.52310  Biso   1.000  H
  C92      1.0000 0.48780  0.31650  0.48770  Biso   1.000  C
  C93      1.0000 0.48390  0.20880  0.48380  Biso   1.000  C
  C94      1.0000 0.48260  0.17420  0.43190  Biso   1.000  C
  H181     1.0000 0.51160  0.19350  0.44130  Biso   1.000  H
  H182     1.0000 0.45540  0.20170  0.39180  Biso   1.000  H
  H183     1.0000 0.48010  0.10510  0.42930  Biso   1.000  H
  C95      1.0000 0.52630  0.16760  0.54710  Biso   1.000  C
  H184     1.0000 0.52660  0.19050  0.57980  Biso   1.000  H
  H185     1.0000 0.55540  0.18730  0.55680  Biso   1.000  H
  H186     1.0000 0.52430  0.09850  0.54520  Biso   1.000  H
  C96      1.0000 0.43950  0.18270  0.47070  Biso   1.000  C
  H187     1.0000 0.41230  0.21120  0.43100  Biso   1.000  H
  H188     1.0000 0.44130  0.20610  0.50470  Biso   1.000  H
  H189     1.0000 0.43600  0.11390  0.46800  Biso   1.000  H
  C97      1.0000 0.41180  0.53650  0.44200  Biso   1.000  C
  C98      1.0000 0.36230  0.57210  0.41020  Biso   1.000  C
  C99      1.0000 0.33530  0.45800  0.38480  Biso   1.000  C
  H190     1.0000 0.34840  0.41880  0.42140  Biso   1.000  H
  H191     1.0000 0.34130  0.42870  0.35960  Biso   1.000  H
  H192     1.0000 0.30120  0.46510  0.35940  Biso   1.000  H
  C100     1.0000 0.35990  0.60000  0.45740  Biso   1.000  C
  H193     1.0000 0.37610  0.55260  0.49100  Biso   1.000  H
  H194     1.0000 0.32690  0.60400  0.43800  Biso   1.000  H
  H195     1.0000 0.37510  0.66140  0.47490  Biso   1.000  H
  C101     1.0000 0.34130  0.62500  0.35530  Biso   1.000  C
  H196     1.0000 0.34660  0.59280  0.32980  Biso   1.000  H
  H197     1.0000 0.35520  0.68790  0.36650  Biso   1.000  H
  H198     1.0000 0.30740  0.62990  0.33120  Biso   1.000  H
  C102     1.0000 0.71730  0.40700  0.49220  Biso   1.000  C
  H199     1.0000 0.69290  0.44890  0.45770  Biso   1.000  H
  H200     1.0000 0.70560  0.37840  0.51100  Biso   1.000  H
  H201     1.0000 0.72500  0.35800  0.47620  Biso   1.000  H
  C103     1.0000 0.81260  0.43400  0.58020  Biso   1.000  C
  H202     1.0000 0.81650  0.37030  0.59700  Biso   1.000  H
  H203     1.0000 0.83380  0.47770  0.61500  Biso   1.000  H
  H204     1.0000 0.82000  0.43240  0.55320  Biso   1.000  H
  C104     1.0000 0.76180  0.46590  0.54230  Biso   1.000  C
  C105     1.0000 0.76380  0.48120  0.59920  Biso   1.000  C
  H205     1.0000 0.73690  0.44960  0.59030  Biso   1.000  H
  H206     1.0000 0.76260  0.54900  0.60520  Biso   1.000  H
  H207     1.0000 0.79310  0.45460  0.63740  Biso   1.000  H
  C106     1.0000 0.34940  0.57700  0.44660  Biso   1.000  C
  H208     1.0000 0.37690  0.59450  0.48970  Biso   1.000  H
  H209     1.0000 0.33780  0.51500  0.44660  Biso   1.000  H
  H210     1.0000 0.32460  0.62410  0.42880  Biso   1.000  H
  C107     1.0000 0.32500  0.54500  0.34250  Biso   1.000  C
  H211     1.0000 0.33830  0.54610  0.32240  Biso   1.000  H
  H212     1.0000 0.29890  0.59010  0.32130  Biso   1.000  H
  H213     1.0000 0.31350  0.48140  0.33940  Biso   1.000  H
  C108     1.0000 0.37200  0.69300  0.40710  Biso   1.000  C
  H214     1.0000 0.38110  0.70130  0.38220  Biso   1.000  H
  H215     1.0000 0.39720  0.71660  0.44970  Biso   1.000  H
  H216     1.0000 0.34300  0.72850  0.38780  Biso   1.000  H
  Ru9      1.0000 0.21020  0.75521  0.96714  Biso   1.000  Ru
  Ru10     1.0000 0.99163  0.99674  0.95369  Biso   1.000  Ru
  Mo25     1.0000 0.02038  0.68415  0.84845  Biso   1.000  Mo
  Mo26     1.0000 0.09896  0.86477  0.91376  Biso   1.000  Mo
  Mo27     1.0000 0.09211  0.70595  0.81655  Biso   1.000  Mo
  Mo28     1.0000 0.09085  0.03861  0.80913  Biso   1.000  Mo
  Mo29     1.0000 0.01199  0.06076  0.84315  Biso   1.000  Mo
  Mo30     1.0000 0.93641  0.88009  0.80132  Biso   1.000  Mo
  O89      1.0000 0.20760  0.77010  0.89480  Biso   1.000  O
  O90      1.0000 0.21640  0.89690  0.97950  Biso   1.000  O
  O91      1.0000 0.29450  0.88690  0.04350  Biso   1.000  O
  O92      1.0000 0.28580  0.76150  0.95900  Biso   1.000  O
  O93      1.0000 0.98170  0.13840  0.94460  Biso   1.000  O
  O94      1.0000 0.92370  0.97310  0.90970  Biso   1.000  O
  O95      1.0000 0.99770  0.14350  0.03530  Biso   1.000  O
  O96      1.0000 0.93980  0.97890  0.00000  Biso   1.000  O
  O97      1.0000 0.03700  0.81060  0.80660  Biso   1.000  O
  O98      1.0000 0.02410  0.93500  0.73430  Biso   1.000  O
  O99      1.0000 0.07200  0.76260  0.91990  Biso   1.000  O
  O100     1.0000 0.12880  0.76890  0.89500  Biso   1.000  O
  O101     1.0000 0.06320  0.63370  0.84500  Biso   1.000  O
  O102     1.0000 0.11060  0.95020  0.86840  Biso   1.000  O
  O103     1.0000 0.04720  0.08120  0.82100  Biso   1.000  O
  O104     1.0000 0.05760  0.95440  0.89530  Biso   1.000  O
  O105     1.0000 0.10520  0.97440  0.76680  Biso   1.000  O
  O106     1.0000 0.04300  0.11080  0.72700  Biso   1.000  O
  O107     1.0000 0.97380  0.98190  0.85540  Biso   1.000  O
  O108     1.0000 0.98210  0.78980  0.84260  Biso   1.000  O
  O109     1.0000 0.90530  0.79630  0.72610  Biso   1.000  O
  O110     1.0000 0.96690  0.66450  0.76600  Biso   1.000  O
  C109     1.0000 0.24610  0.77130  0.90510  Biso   1.000  C
  C110     1.0000 0.24250  0.78690  0.84870  Biso   1.000  C
  C111     1.0000 0.22400  0.89010  0.82670  Biso   1.000  C
  H217     1.0000 0.24590  0.93390  0.86120  Biso   1.000  H
  H218     1.0000 0.22160  0.90550  0.79110  Biso   1.000  H
  H219     1.0000 0.19290  0.89550  0.81400  Biso   1.000  H
  C112     1.0000 0.29010  0.77800  0.86870  Biso   1.000  C
  H220     1.0000 0.30160  0.71320  0.88280  Biso   1.000  H
  H221     1.0000 0.28800  0.79270  0.83320  Biso   1.000  H
  H222     1.0000 0.31190  0.82210  0.90310  Biso   1.000  H
  C113     1.0000 0.20530  0.72220  0.79680  Biso   1.000  C
  H223     1.0000 0.20060  0.73530  0.75910  Biso   1.000  H
  H224     1.0000 0.21530  0.65640  0.80960  Biso   1.000  H
  H225     1.0000 0.17570  0.73250  0.78780  Biso   1.000  H
  C114     1.0000 0.25690  0.93450  0.01640  Biso   1.000  C
  C115     1.0000 0.25960  0.04080  0.01670  Biso   1.000  C
  C116     1.0000 0.25160  0.07500  0.96020  Biso   1.000  C
  H226     1.0000 0.22030  0.10360  0.93030  Biso   1.000  H
  H227     1.0000 0.27560  0.12210  0.97330  Biso   1.000  H
  H228     1.0000 0.25380  0.02160  0.94030  Biso   1.000  H
  C117     1.0000 0.30450  0.07800  0.06510  Biso   1.000  C
  H229     1.0000 0.32800  0.04370  0.06730  Biso   1.000  H
  H230     1.0000 0.30500  0.14510  0.05680  Biso   1.000  H
  H231     1.0000 0.31170  0.07170  0.10500  Biso   1.000  H
  C118     1.0000 0.22460  0.07700  0.01870  Biso   1.000  C
  H232     1.0000 0.19300  0.06030  0.97980  Biso   1.000  H
  H233     1.0000 0.22990  0.04950  0.05450  Biso   1.000  H
  H234     1.0000 0.22730  0.14610  0.02310  Biso   1.000  H
  C119     1.0000 0.98780  0.18350  0.98770  Biso   1.000  C
  C120     1.0000 0.98390  0.29120  0.98380  Biso   1.000  C
  C121     1.0000 0.98260  0.32580  0.93190  Biso   1.000  C
  H235     1.0000 0.01160  0.30650  0.94130  Biso   1.000  H
  H236     1.0000 0.95540  0.29830  0.89180  Biso   1.000  H
  H237     1.0000 0.98010  0.39490  0.92930  Biso   1.000  H
  C122     1.0000 0.02630  0.33240  0.04710  Biso   1.000  C
  H238     1.0000 0.02660  0.30950  0.07980  Biso   1.000  H
  H239     1.0000 0.05540  0.31270  0.05680  Biso   1.000  H
  H240     1.0000 0.02430  0.40150  0.04520  Biso   1.000  H
  C123     1.0000 0.93950  0.31730  0.97070  Biso   1.000  C
  H241     1.0000 0.91230  0.28880  0.93100  Biso   1.000  H
  H242     1.0000 0.94130  0.29390  0.00470  Biso   1.000  H
  H243     1.0000 0.93600  0.38610  0.96800  Biso   1.000  H
  C124     1.0000 0.91180  0.96350  0.94200  Biso   1.000  C
  C125     1.0000 0.86230  0.92790  0.91020  Biso   1.000  C
  C126     1.0000 0.83530  0.04200  0.88480  Biso   1.000  C
  H244     1.0000 0.84840  0.08120  0.92140  Biso   1.000  H
  H245     1.0000 0.84130  0.07130  0.85960  Biso   1.000  H
  H246     1.0000 0.80120  0.03490  0.85940  Biso   1.000  H
  C127     1.0000 0.85990  0.90000  0.95740  Biso   1.000  C
  H247     1.0000 0.87610  0.94740  0.99100  Biso   1.000  H
  H248     1.0000 0.82690  0.89600  0.93800  Biso   1.000  H
  H249     1.0000 0.87510  0.83860  0.97490  Biso   1.000  H
  C128     1.0000 0.84130  0.87500  0.85530  Biso   1.000  C
  H250     1.0000 0.84660  0.90720  0.82980  Biso   1.000  H
  H251     1.0000 0.85520  0.81210  0.86650  Biso   1.000  H
  H252     1.0000 0.80740  0.87010  0.83120  Biso   1.000  H
  C129     1.0000 0.21730  0.09300  0.99220  Biso   1.000  C
  H253     1.0000 0.19290  0.05110  0.95770  Biso   1.000  H
  H254     1.0000 0.20560  0.12160  0.01100  Biso   1.000  H
  H255     1.0000 0.22500  0.14200  0.97620  Biso   1.000  H
  C130     1.0000 0.31260  0.06600  0.08020  Biso   1.000  C
  H256     1.0000 0.31650  0.12970  0.09700  Biso   1.000  H
  H257     1.0000 0.33380  0.02230  0.11500  Biso   1.000  H
  H258     1.0000 0.32000  0.06760  0.05320  Biso   1.000  H
  C131     1.0000 0.26180  0.03410  0.04230  Biso   1.000  C
  C132     1.0000 0.26380  0.01880  0.09920  Biso   1.000  C
  H259     1.0000 0.23690  0.05040  0.09030  Biso   1.000  H
  H260     1.0000 0.26260  0.95100  0.10520  Biso   1.000  H
  H261     1.0000 0.29310  0.04540  0.13740  Biso   1.000  H
  C133     1.0000 0.84940  0.92300  0.94660  Biso   1.000  C
  H262     1.0000 0.87690  0.90550  0.98970  Biso   1.000  H
  H263     1.0000 0.83780  0.98500  0.94660  Biso   1.000  H
  H264     1.0000 0.82460  0.87590  0.92880  Biso   1.000  H
  C134     1.0000 0.82500  0.95500  0.84250  Biso   1.000  C
  H265     1.0000 0.83830  0.95390  0.82240  Biso   1.000  H
  H266     1.0000 0.79890  0.90990  0.82130  Biso   1.000  H
  H267     1.0000 0.81350  0.01860  0.83940  Biso   1.000  H
  C135     1.0000 0.87200  0.80700  0.90710  Biso   1.000  C
  H268     1.0000 0.88110  0.79870  0.88220  Biso   1.000  H
  H269     1.0000 0.89720  0.78340  0.94970  Biso   1.000  H
  H270     1.0000 0.84300  0.77150  0.88780  Biso   1.000  H
  Ru11     1.0000 0.71020  0.25521  0.96714  Biso   1.000  Ru
  Ru12     1.0000 0.49163  0.49674  0.95369  Biso   1.000  Ru
  Mo31     1.0000 0.52038  0.18415  0.84845  Biso   1.000  Mo
  Mo32     1.0000 0.59896  0.36477  0.91376  Biso   1.000  Mo
  Mo33     1.0000 0.59211  0.20595  0.81655  Biso   1.000  Mo
  Mo34     1.0000 0.59085  0.53861  0.80913  Biso   1.000  Mo
  Mo35     1.0000 0.51199  0.56076  0.84315  Biso   1.000  Mo
  Mo36     1.0000 0.43641  0.38009  0.80132  Biso   1.000  Mo
  O111     1.0000 0.70760  0.27010  0.89480  Biso   1.000  O
  O112     1.0000 0.71640  0.39690  0.97950  Biso   1.000  O
  O113     1.0000 0.79450  0.38690  0.04350  Biso   1.000  O
  O114     1.0000 0.78580  0.26150  0.95900  Biso   1.000  O
  O115     1.0000 0.48170  0.63840  0.94460  Biso   1.000  O
  O116     1.0000 0.42370  0.47310  0.90970  Biso   1.000  O
  O117     1.0000 0.49770  0.64350  0.03530  Biso   1.000  O
  O118     1.0000 0.43980  0.47890  0.00000  Biso   1.000  O
  O119     1.0000 0.53700  0.31060  0.80660  Biso   1.000  O
  O120     1.0000 0.52410  0.43500  0.73430  Biso   1.000  O
  O121     1.0000 0.57200  0.26260  0.91990  Biso   1.000  O
  O122     1.0000 0.62880  0.26890  0.89500  Biso   1.000  O
  O123     1.0000 0.56320  0.13370  0.84500  Biso   1.000  O
  O124     1.0000 0.61060  0.45020  0.86840  Biso   1.000  O
  O125     1.0000 0.54720  0.58120  0.82100  Biso   1.000  O
  O126     1.0000 0.55760  0.45440  0.89530  Biso   1.000  O
  O127     1.0000 0.60520  0.47440  0.76680  Biso   1.000  O
  O128     1.0000 0.54300  0.61080  0.72700  Biso   1.000  O
  O129     1.0000 0.47380  0.48190  0.85540  Biso   1.000  O
  O130     1.0000 0.48210  0.28980  0.84260  Biso   1.000  O
  O131     1.0000 0.40530  0.29630  0.72610  Biso   1.000  O
  O132     1.0000 0.46690  0.16450  0.76600  Biso   1.000  O
  C136     1.0000 0.74610  0.27130  0.90510  Biso   1.000  C
  C137     1.0000 0.74250  0.28690  0.84870  Biso   1.000  C
  C138     1.0000 0.72400  0.39010  0.82670  Biso   1.000  C
  H271     1.0000 0.74590  0.43390  0.86120  Biso   1.000  H
  H272     1.0000 0.72160  0.40550  0.79110  Biso   1.000  H
  H273     1.0000 0.69290  0.39550  0.81400  Biso   1.000  H
  C139     1.0000 0.79010  0.27800  0.86870  Biso   1.000  C
  H274     1.0000 0.80160  0.21320  0.88280  Biso   1.000  H
  H275     1.0000 0.78800  0.29270  0.83320  Biso   1.000  H
  H276     1.0000 0.81190  0.32210  0.90310  Biso   1.000  H
  C140     1.0000 0.70530  0.22220  0.79680  Biso   1.000  C
  H277     1.0000 0.70060  0.23530  0.75910  Biso   1.000  H
  H278     1.0000 0.71530  0.15640  0.80960  Biso   1.000  H
  H279     1.0000 0.67570  0.23250  0.78780  Biso   1.000  H
  C141     1.0000 0.75690  0.43450  0.01640  Biso   1.000  C
  C142     1.0000 0.75960  0.54080  0.01670  Biso   1.000  C
  C143     1.0000 0.75160  0.57500  0.96020  Biso   1.000  C
  H280     1.0000 0.72030  0.60360  0.93030  Biso   1.000  H
  H281     1.0000 0.77560  0.62210  0.97330  Biso   1.000  H
  H282     1.0000 0.75380  0.52160  0.94030  Biso   1.000  H
  C144     1.0000 0.80450  0.57800  0.06510  Biso   1.000  C
  H283     1.0000 0.82800  0.54370  0.06730  Biso   1.000  H
  H284     1.0000 0.80500  0.64510  0.05680  Biso   1.000  H
  H285     1.0000 0.81170  0.57170  0.10500  Biso   1.000  H
  C145     1.0000 0.72460  0.57700  0.01870  Biso   1.000  C
  H286     1.0000 0.69300  0.56030  0.97980  Biso   1.000  H
  H287     1.0000 0.72990  0.54950  0.05450  Biso   1.000  H
  H288     1.0000 0.72730  0.64610  0.02310  Biso   1.000  H
  C146     1.0000 0.48780  0.68350  0.98770  Biso   1.000  C
  C147     1.0000 0.48390  0.79120  0.98380  Biso   1.000  C
  C148     1.0000 0.48260  0.82580  0.93190  Biso   1.000  C
  H289     1.0000 0.51160  0.80650  0.94130  Biso   1.000  H
  H290     1.0000 0.45540  0.79830  0.89180  Biso   1.000  H
  H291     1.0000 0.48010  0.89490  0.92930  Biso   1.000  H
  C149     1.0000 0.52630  0.83240  0.04710  Biso   1.000  C
  H292     1.0000 0.52660  0.80950  0.07980  Biso   1.000  H
  H293     1.0000 0.55540  0.81270  0.05680  Biso   1.000  H
  H294     1.0000 0.52430  0.90150  0.04520  Biso   1.000  H
  C150     1.0000 0.43950  0.81730  0.97070  Biso   1.000  C
  H295     1.0000 0.41230  0.78880  0.93100  Biso   1.000  H
  H296     1.0000 0.44130  0.79390  0.00470  Biso   1.000  H
  H297     1.0000 0.43600  0.88610  0.96800  Biso   1.000  H
  C151     1.0000 0.41180  0.46350  0.94200  Biso   1.000  C
  C152     1.0000 0.36230  0.42790  0.91020  Biso   1.000  C
  C153     1.0000 0.33530  0.54200  0.88480  Biso   1.000  C
  H298     1.0000 0.34840  0.58120  0.92140  Biso   1.000  H
  H299     1.0000 0.34130  0.57130  0.85960  Biso   1.000  H
  H300     1.0000 0.30120  0.53490  0.85940  Biso   1.000  H
  C154     1.0000 0.35990  0.40000  0.95740  Biso   1.000  C
  H301     1.0000 0.37610  0.44740  0.99100  Biso   1.000  H
  H302     1.0000 0.32690  0.39600  0.93800  Biso   1.000  H
  H303     1.0000 0.37510  0.33860  0.97490  Biso   1.000  H
  C155     1.0000 0.34130  0.37500  0.85530  Biso   1.000  C
  H304     1.0000 0.34660  0.40720  0.82980  Biso   1.000  H
  H305     1.0000 0.35520  0.31210  0.86650  Biso   1.000  H
  H306     1.0000 0.30740  0.37010  0.83120  Biso   1.000  H
  C156     1.0000 0.71730  0.59300  0.99220  Biso   1.000  C
  H307     1.0000 0.69290  0.55110  0.95770  Biso   1.000  H
  H308     1.0000 0.70560  0.62160  0.01100  Biso   1.000  H
  H309     1.0000 0.72500  0.64200  0.97620  Biso   1.000  H
  C157     1.0000 0.81260  0.56600  0.08020  Biso   1.000  C
  H310     1.0000 0.81650  0.62970  0.09700  Biso   1.000  H
  H311     1.0000 0.83380  0.52230  0.11500  Biso   1.000  H
  H312     1.0000 0.82000  0.56760  0.05320  Biso   1.000  H
  C158     1.0000 0.76180  0.53410  0.04230  Biso   1.000  C
  C159     1.0000 0.76380  0.51880  0.09920  Biso   1.000  C
  H313     1.0000 0.73690  0.55040  0.09030  Biso   1.000  H
  H314     1.0000 0.76260  0.45100  0.10520  Biso   1.000  H
  H315     1.0000 0.79310  0.54540  0.13740  Biso   1.000  H
  C160     1.0000 0.34940  0.42300  0.94660  Biso   1.000  C
  H316     1.0000 0.37690  0.40550  0.98970  Biso   1.000  H
  H317     1.0000 0.33780  0.48500  0.94660  Biso   1.000  H
  H318     1.0000 0.32460  0.37590  0.92880  Biso   1.000  H
  C161     1.0000 0.32500  0.45500  0.84250  Biso   1.000  C
  H319     1.0000 0.33830  0.45390  0.82240  Biso   1.000  H
  H320     1.0000 0.29890  0.40990  0.82130  Biso   1.000  H
  H321     1.0000 0.31350  0.51860  0.83940  Biso   1.000  H
  C162     1.0000 0.37200  0.30700  0.90710  Biso   1.000  C
  H322     1.0000 0.38110  0.29870  0.88220  Biso   1.000  H
  H323     1.0000 0.39720  0.28340  0.94970  Biso   1.000  H
  H324     1.0000 0.34300  0.27150  0.88780  Biso   1.000  H
  Ru13     1.0000 0.78980  0.75521  0.53286  Biso   1.000  Ru
  Ru14     1.0000 0.00837  0.99674  0.54631  Biso   1.000  Ru
  Mo37     1.0000 0.97962  0.68415  0.65155  Biso   1.000  Mo
  Mo38     1.0000 0.90104  0.86477  0.58624  Biso   1.000  Mo
  Mo39     1.0000 0.90789  0.70595  0.68345  Biso   1.000  Mo
  Mo40     1.0000 0.90915  0.03861  0.69087  Biso   1.000  Mo
  Mo41     1.0000 0.98801  0.06076  0.65685  Biso   1.000  Mo
  Mo42     1.0000 0.06359  0.88009  0.69868  Biso   1.000  Mo
  O133     1.0000 0.79240  0.77010  0.60520  Biso   1.000  O
  O134     1.0000 0.78360  0.89690  0.52050  Biso   1.000  O
  O135     1.0000 0.70550  0.88690  0.45650  Biso   1.000  O
  O136     1.0000 0.71420  0.76150  0.54100  Biso   1.000  O
  O137     1.0000 0.01830  0.13840  0.55540  Biso   1.000  O
  O138     1.0000 0.07630  0.97310  0.59030  Biso   1.000  O
  O139     1.0000 0.00230  0.14350  0.46470  Biso   1.000  O
  O140     1.0000 0.06020  0.97890  0.50000  Biso   1.000  O
  O141     1.0000 0.96300  0.81060  0.69340  Biso   1.000  O
  O142     1.0000 0.97590  0.93500  0.76570  Biso   1.000  O
  O143     1.0000 0.92800  0.76260  0.58010  Biso   1.000  O
  O144     1.0000 0.87120  0.76890  0.60500  Biso   1.000  O
  O145     1.0000 0.93680  0.63370  0.65500  Biso   1.000  O
  O146     1.0000 0.88940  0.95020  0.63160  Biso   1.000  O
  O147     1.0000 0.95280  0.08120  0.67900  Biso   1.000  O
  O148     1.0000 0.94240  0.95440  0.60470  Biso   1.000  O
  O149     1.0000 0.89480  0.97440  0.73320  Biso   1.000  O
  O150     1.0000 0.95700  0.11080  0.77300  Biso   1.000  O
  O151     1.0000 0.02620  0.98190  0.64460  Biso   1.000  O
  O152     1.0000 0.01790  0.78980  0.65740  Biso   1.000  O
  O153     1.0000 0.09470  0.79630  0.77390  Biso   1.000  O
  O154     1.0000 0.03310  0.66450  0.73400  Biso   1.000  O
  C163     1.0000 0.75390  0.77130  0.59490  Biso   1.000  C
  C164     1.0000 0.75750  0.78690  0.65130  Biso   1.000  C
  C165     1.0000 0.77600  0.89010  0.67330  Biso   1.000  C
  H325     1.0000 0.75410  0.93390  0.63880  Biso   1.000  H
  H326     1.0000 0.77840  0.90550  0.70890  Biso   1.000  H
  H327     1.0000 0.80710  0.89550  0.68600  Biso   1.000  H
  C166     1.0000 0.70990  0.77800  0.63130  Biso   1.000  C
  H328     1.0000 0.69840  0.71320  0.61720  Biso   1.000  H
  H329     1.0000 0.71200  0.79270  0.66680  Biso   1.000  H
  H330     1.0000 0.68810  0.82210  0.59690  Biso   1.000  H
  C167     1.0000 0.79470  0.72220  0.70320  Biso   1.000  C
  H331     1.0000 0.79940  0.73530  0.74090  Biso   1.000  H
  H332     1.0000 0.78470  0.65640  0.69040  Biso   1.000  H
  H333     1.0000 0.82430  0.73250  0.71220  Biso   1.000  H
  C168     1.0000 0.74310  0.93450  0.48360  Biso   1.000  C
  C169     1.0000 0.74040  0.04080  0.48330  Biso   1.000  C
  C170     1.0000 0.74840  0.07500  0.53980  Biso   1.000  C
  H334     1.0000 0.77970  0.10360  0.56970  Biso   1.000  H
  H335     1.0000 0.72440  0.12210  0.52670  Biso   1.000  H
  H336     1.0000 0.74620  0.02160  0.55970  Biso   1.000  H
  C171     1.0000 0.69550  0.07800  0.43490  Biso   1.000  C
  H337     1.0000 0.67200  0.04370  0.43270  Biso   1.000  H
  H338     1.0000 0.69500  0.14510  0.44320  Biso   1.000  H
  H339     1.0000 0.68830  0.07170  0.39500  Biso   1.000  H
  C172     1.0000 0.77540  0.07700  0.48130  Biso   1.000  C
  H340     1.0000 0.80700  0.06030  0.52020  Biso   1.000  H
  H341     1.0000 0.77010  0.04950  0.44550  Biso   1.000  H
  H342     1.0000 0.77270  0.14610  0.47690  Biso   1.000  H
  C173     1.0000 0.01220  0.18350  0.51230  Biso   1.000  C
  C174     1.0000 0.01610  0.29120  0.51620  Biso   1.000  C
  C175     1.0000 0.01740  0.32580  0.56810  Biso   1.000  C
  H343     1.0000 0.98840  0.30650  0.55870  Biso   1.000  H
  H344     1.0000 0.04460  0.29830  0.60820  Biso   1.000  H
  H345     1.0000 0.01990  0.39490  0.57070  Biso   1.000  H
  C176     1.0000 0.97370  0.33240  0.45290  Biso   1.000  C
  H346     1.0000 0.97340  0.30950  0.42020  Biso   1.000  H
  H347     1.0000 0.94460  0.31270  0.44320  Biso   1.000  H
  H348     1.0000 0.97570  0.40150  0.45480  Biso   1.000  H
  C177     1.0000 0.06050  0.31730  0.52930  Biso   1.000  C
  H349     1.0000 0.08770  0.28880  0.56900  Biso   1.000  H
  H350     1.0000 0.05870  0.29390  0.49530  Biso   1.000  H
  H351     1.0000 0.06400  0.38610  0.53200  Biso   1.000  H
  C178     1.0000 0.08820  0.96350  0.55800  Biso   1.000  C
  C179     1.0000 0.13770  0.92790  0.58980  Biso   1.000  C
  C180     1.0000 0.16470  0.04200  0.61520  Biso   1.000  C
  H352     1.0000 0.15160  0.08120  0.57860  Biso   1.000  H
  H353     1.0000 0.15870  0.07130  0.64040  Biso   1.000  H
  H354     1.0000 0.19880  0.03490  0.64060  Biso   1.000  H
  C181     1.0000 0.14010  0.90000  0.54260  Biso   1.000  C
  H355     1.0000 0.12390  0.94740  0.50900  Biso   1.000  H
  H356     1.0000 0.17310  0.89600  0.56200  Biso   1.000  H
  H357     1.0000 0.12490  0.83860  0.52510  Biso   1.000  H
  C182     1.0000 0.15870  0.87500  0.64470  Biso   1.000  C
  H358     1.0000 0.15340  0.90720  0.67020  Biso   1.000  H
  H359     1.0000 0.14480  0.81210  0.63350  Biso   1.000  H
  H360     1.0000 0.19260  0.87010  0.66880  Biso   1.000  H
  C183     1.0000 0.78270  0.09300  0.50780  Biso   1.000  C
  H361     1.0000 0.80710  0.05110  0.54230  Biso   1.000  H
  H362     1.0000 0.79440  0.12160  0.48900  Biso   1.000  H
  H363     1.0000 0.77500  0.14200  0.52380  Biso   1.000  H
  C184     1.0000 0.68740  0.06600  0.41980  Biso   1.000  C
  H364     1.0000 0.68350  0.12970  0.40300  Biso   1.000  H
  H365     1.0000 0.66620  0.02230  0.38500  Biso   1.000  H
  H366     1.0000 0.68000  0.06760  0.44680  Biso   1.000  H
  C185     1.0000 0.73820  0.03410  0.45770  Biso   1.000  C
  C186     1.0000 0.73620  0.01880  0.40080  Biso   1.000  C
  H367     1.0000 0.76310  0.05040  0.40970  Biso   1.000  H
  H368     1.0000 0.73740  0.95100  0.39480  Biso   1.000  H
  H369     1.0000 0.70690  0.04540  0.36260  Biso   1.000  H
  C187     1.0000 0.15060  0.92300  0.55340  Biso   1.000  C
  H370     1.0000 0.12310  0.90550  0.51030  Biso   1.000  H
  H371     1.0000 0.16220  0.98500  0.55340  Biso   1.000  H
  H372     1.0000 0.17540  0.87590  0.57120  Biso   1.000  H
  C188     1.0000 0.17500  0.95500  0.65750  Biso   1.000  C
  H373     1.0000 0.16170  0.95390  0.67760  Biso   1.000  H
  H374     1.0000 0.20110  0.90990  0.67870  Biso   1.000  H
  H375     1.0000 0.18650  0.01860  0.66060  Biso   1.000  H
  C189     1.0000 0.12800  0.80700  0.59290  Biso   1.000  C
  H376     1.0000 0.11890  0.79870  0.61780  Biso   1.000  H
  H377     1.0000 0.10280  0.78340  0.55030  Biso   1.000  H
  H378     1.0000 0.15700  0.77150  0.61220  Biso   1.000  H
  Ru15     1.0000 0.28980  0.25521  0.53286  Biso   1.000  Ru
  Ru16     1.0000 0.50837  0.49674  0.54631  Biso   1.000  Ru
  Mo43     1.0000 0.47962  0.18415  0.65155  Biso   1.000  Mo
  Mo44     1.0000 0.40104  0.36477  0.58624  Biso   1.000  Mo
  Mo45     1.0000 0.40789  0.20595  0.68345  Biso   1.000  Mo
  Mo46     1.0000 0.40915  0.53861  0.69087  Biso   1.000  Mo
  Mo47     1.0000 0.48801  0.56076  0.65685  Biso   1.000  Mo
  Mo48     1.0000 0.56359  0.38009  0.69868  Biso   1.000  Mo
  O155     1.0000 0.29240  0.27010  0.60520  Biso   1.000  O
  O156     1.0000 0.28360  0.39690  0.52050  Biso   1.000  O
  O157     1.0000 0.20550  0.38690  0.45650  Biso   1.000  O
  O158     1.0000 0.21420  0.26150  0.54100  Biso   1.000  O
  O159     1.0000 0.51830  0.63840  0.55540  Biso   1.000  O
  O160     1.0000 0.57630  0.47310  0.59030  Biso   1.000  O
  O161     1.0000 0.50230  0.64350  0.46470  Biso   1.000  O
  O162     1.0000 0.56020  0.47890  0.50000  Biso   1.000  O
  O163     1.0000 0.46300  0.31060  0.69340  Biso   1.000  O
  O164     1.0000 0.47590  0.43500  0.76570  Biso   1.000  O
  O165     1.0000 0.42800  0.26260  0.58010  Biso   1.000  O
  O166     1.0000 0.37120  0.26890  0.60500  Biso   1.000  O
  O167     1.0000 0.43680  0.13370  0.65500  Biso   1.000  O
  O168     1.0000 0.38940  0.45020  0.63160  Biso   1.000  O
  O169     1.0000 0.45280  0.58120  0.67900  Biso   1.000  O
  O170     1.0000 0.44240  0.45440  0.60470  Biso   1.000  O
  O171     1.0000 0.39480  0.47440  0.73320  Biso   1.000  O
  O172     1.0000 0.45700  0.61080  0.77300  Biso   1.000  O
  O173     1.0000 0.52620  0.48190  0.64460  Biso   1.000  O
  O174     1.0000 0.51790  0.28980  0.65740  Biso   1.000  O
  O175     1.0000 0.59470  0.29630  0.77390  Biso   1.000  O
  O176     1.0000 0.53310  0.16450  0.73400  Biso   1.000  O
  C190     1.0000 0.25390  0.27130  0.59490  Biso   1.000  C
  C191     1.0000 0.25750  0.28690  0.65130  Biso   1.000  C
  C192     1.0000 0.27600  0.39010  0.67330  Biso   1.000  C
  H379     1.0000 0.25410  0.43390  0.63880  Biso   1.000  H
  H380     1.0000 0.27840  0.40550  0.70890  Biso   1.000  H
  H381     1.0000 0.30710  0.39550  0.68600  Biso   1.000  H
  C193     1.0000 0.20990  0.27800  0.63130  Biso   1.000  C
  H382     1.0000 0.19840  0.21320  0.61720  Biso   1.000  H
  H383     1.0000 0.21200  0.29270  0.66680  Biso   1.000  H
  H384     1.0000 0.18810  0.32210  0.59690  Biso   1.000  H
  C194     1.0000 0.29470  0.22220  0.70320  Biso   1.000  C
  H385     1.0000 0.29940  0.23530  0.74090  Biso   1.000  H
  H386     1.0000 0.28470  0.15640  0.69040  Biso   1.000  H
  H387     1.0000 0.32430  0.23250  0.71220  Biso   1.000  H
  C195     1.0000 0.24310  0.43450  0.48360  Biso   1.000  C
  C196     1.0000 0.24040  0.54080  0.48330  Biso   1.000  C
  C197     1.0000 0.24840  0.57500  0.53980  Biso   1.000  C
  H388     1.0000 0.27970  0.60360  0.56970  Biso   1.000  H
  H389     1.0000 0.22440  0.62210  0.52670  Biso   1.000  H
  H390     1.0000 0.24620  0.52160  0.55970  Biso   1.000  H
  C198     1.0000 0.19550  0.57800  0.43490  Biso   1.000  C
  H391     1.0000 0.17200  0.54370  0.43270  Biso   1.000  H
  H392     1.0000 0.19500  0.64510  0.44320  Biso   1.000  H
  H393     1.0000 0.18830  0.57170  0.39500  Biso   1.000  H
  C199     1.0000 0.27540  0.57700  0.48130  Biso   1.000  C
  H394     1.0000 0.30700  0.56030  0.52020  Biso   1.000  H
  H395     1.0000 0.27010  0.54950  0.44550  Biso   1.000  H
  H396     1.0000 0.27270  0.64610  0.47690  Biso   1.000  H
  C200     1.0000 0.51220  0.68350  0.51230  Biso   1.000  C
  C201     1.0000 0.51610  0.79120  0.51620  Biso   1.000  C
  C202     1.0000 0.51740  0.82580  0.56810  Biso   1.000  C
  H397     1.0000 0.48840  0.80650  0.55870  Biso   1.000  H
  H398     1.0000 0.54460  0.79830  0.60820  Biso   1.000  H
  H399     1.0000 0.51990  0.89490  0.57070  Biso   1.000  H
  C203     1.0000 0.47370  0.83240  0.45290  Biso   1.000  C
  H400     1.0000 0.47340  0.80950  0.42020  Biso   1.000  H
  H401     1.0000 0.44460  0.81270  0.44320  Biso   1.000  H
  H402     1.0000 0.47570  0.90150  0.45480  Biso   1.000  H
  C204     1.0000 0.56050  0.81730  0.52930  Biso   1.000  C
  H403     1.0000 0.58770  0.78880  0.56900  Biso   1.000  H
  H404     1.0000 0.55870  0.79390  0.49530  Biso   1.000  H
  H405     1.0000 0.56400  0.88610  0.53200  Biso   1.000  H
  C205     1.0000 0.58820  0.46350  0.55800  Biso   1.000  C
  C206     1.0000 0.63770  0.42790  0.58980  Biso   1.000  C
  C207     1.0000 0.66470  0.54200  0.61520  Biso   1.000  C
  H406     1.0000 0.65160  0.58120  0.57860  Biso   1.000  H
  H407     1.0000 0.65870  0.57130  0.64040  Biso   1.000  H
  H408     1.0000 0.69880  0.53490  0.64060  Biso   1.000  H
  C208     1.0000 0.64010  0.40000  0.54260  Biso   1.000  C
  H409     1.0000 0.62390  0.44740  0.50900  Biso   1.000  H
  H410     1.0000 0.67310  0.39600  0.56200  Biso   1.000  H
  H411     1.0000 0.62490  0.33860  0.52510  Biso   1.000  H
  C209     1.0000 0.65870  0.37500  0.64470  Biso   1.000  C
  H412     1.0000 0.65340  0.40720  0.67020  Biso   1.000  H
  H413     1.0000 0.64480  0.31210  0.63350  Biso   1.000  H
  H414     1.0000 0.69260  0.37010  0.66880  Biso   1.000  H
  C210     1.0000 0.28270  0.59300  0.50780  Biso   1.000  C
  H415     1.0000 0.30710  0.55110  0.54230  Biso   1.000  H
  H416     1.0000 0.29440  0.62160  0.48900  Biso   1.000  H
  H417     1.0000 0.27500  0.64200  0.52380  Biso   1.000  H
  C211     1.0000 0.18740  0.56600  0.41980  Biso   1.000  C
  H418     1.0000 0.18350  0.62970  0.40300  Biso   1.000  H
  H419     1.0000 0.16620  0.52230  0.38500  Biso   1.000  H
  H420     1.0000 0.18000  0.56760  0.44680  Biso   1.000  H
  C212     1.0000 0.23820  0.53410  0.45770  Biso   1.000  C
  C213     1.0000 0.23620  0.51880  0.40080  Biso   1.000  C
  H421     1.0000 0.26310  0.55040  0.40970  Biso   1.000  H
  H422     1.0000 0.23740  0.45100  0.39480  Biso   1.000  H
  H423     1.0000 0.20690  0.54540  0.36260  Biso   1.000  H
  C214     1.0000 0.65060  0.42300  0.55340  Biso   1.000  C
  H424     1.0000 0.62310  0.40550  0.51030  Biso   1.000  H
  H425     1.0000 0.66220  0.48500  0.55340  Biso   1.000  H
  H426     1.0000 0.67540  0.37590  0.57120  Biso   1.000  H
  C215     1.0000 0.67500  0.45500  0.65750  Biso   1.000  C
  H427     1.0000 0.66170  0.45390  0.67760  Biso   1.000  H
  H428     1.0000 0.70110  0.40990  0.67870  Biso   1.000  H
  H429     1.0000 0.68650  0.51860  0.66060  Biso   1.000  H
  C216     1.0000 0.62800  0.30700  0.59290  Biso   1.000  C
  H430     1.0000 0.61890  0.29870  0.61780  Biso   1.000  H
  H431     1.0000 0.60280  0.28340  0.55030  Biso   1.000  H
  H432     1.0000 0.65700  0.27150  0.61220  Biso   1.000  H
  P1       1.0000 0.00000  0.12740  0.25000  Biso   1.000  P
  P2       1.0000 0.50000  0.62740  0.25000  Biso   1.000  P
  P3       1.0000 0.00000  0.87260  0.75000  Biso   1.000  P
  P4       1.0000 0.50000  0.37260  0.75000  Biso   1.000  P
