data_image0
_cell_length_a       18.3559
_cell_length_b       26.314
_cell_length_c       42.406
_cell_angle_alpha    90
_cell_angle_beta     90
_cell_angle_gamma    90

_symmetry_space_group_name_H-M    "P 1"
_symmetry_int_tables_number       1

loop_
  _symmetry_equiv_pos_as_xyz
  'x, y, z'

loop_
  _atom_site_label
  _atom_site_occupancy
  _atom_site_fract_x
  _atom_site_fract_y
  _atom_site_fract_z
  _atom_site_thermal_displace_type
  _atom_site_B_iso_or_equiv
  _atom_site_type_symbol
  C1       1.0000 0.75240  0.12260  0.30290  Biso   1.000  C
  C2       1.0000 0.75110  0.17480  0.28730  Biso   1.000  C
  C3       1.0000 0.68490  0.19800  0.28040  Biso   1.000  C
  C4       1.0000 0.74900  0.27200  0.26150  Biso   1.000  C
  C5       1.0000 0.81600  0.20030  0.28130  Biso   1.000  C
  O1       1.0000 0.81640  0.10950  0.31640  Biso   1.000  O
  C6       1.0000 0.75680  0.41350  0.21670  Biso   1.000  C
  C7       1.0000 0.68940  0.39150  0.22280  Biso   1.000  C
  C8       1.0000 0.74900  0.31890  0.24570  Biso   1.000  C
  C9       1.0000 0.82040  0.38810  0.22510  Biso   1.000  C
  C10      1.0000 0.52600  0.04330  0.30880  Biso   1.000  C
  C11      1.0000 0.43880  0.04650  0.30750  Biso   1.000  C
  C12      1.0000 0.39810  0.04120  0.33490  Biso   1.000  C
  C13      1.0000 0.32260  0.03750  0.33330  Biso   1.000  C
  C14      1.0000 0.28790  0.03920  0.30420  Biso   1.000  C
  C15      1.0000 0.32860  0.04450  0.27670  Biso   1.000  C
  C16      1.0000 0.40410  0.04810  0.27840  Biso   1.000  C
  O2       1.0000 0.56020  0.05150  0.28090  Biso   1.000  O
  C17      1.0000 0.97260  0.04170  0.31600  Biso   1.000  C
  C18      1.0000 0.05770  0.03550  0.31160  Biso   1.000  C
  C19      1.0000 0.10180  0.03140  0.33810  Biso   1.000  C
  C20      1.0000 0.17720  0.03290  0.33490  Biso   1.000  C
  C21      1.0000 0.20840  0.03850  0.30530  Biso   1.000  C
  C22      1.0000 0.16420  0.04270  0.27880  Biso   1.000  C
  C23      1.0000 0.08890  0.04120  0.28190  Biso   1.000  C
  O3       1.0000 0.95340  0.04930  0.34560  Biso   1.000  O
  O4       1.0000 0.93360  0.03860  0.28960  Biso   1.000  O
  C24      1.0000 0.74950  0.03000  0.38310  Biso   1.000  C
  C25      1.0000 0.75150  0.01990  0.41860  Biso   1.000  C
  C26      1.0000 0.81390  0.03020  0.43600  Biso   1.000  C
  C27      1.0000 0.81500  0.02090  0.46830  Biso   1.000  C
  C28      1.0000 0.75360  0.00130  0.48310  Biso   1.000  C
  C29      1.0000 0.69110  0.99110  0.46570  Biso   1.000  C
  C30      1.0000 0.69010  0.00040  0.43340  Biso   1.000  C
  Zn1      1.0000 0.84400  0.04120  0.32649  Biso   1.000  Zn
  C31      1.0000 0.24880  0.08900  0.37710  Biso   1.000  C
  C32      1.0000 0.19840  0.09530  0.40120  Biso   1.000  C
  C33      1.0000 0.18430  0.14350  0.41310  Biso   1.000  C
  C34      1.0000 0.22100  0.18550  0.40080  Biso   1.000  C
  C35      1.0000 0.27100  0.17920  0.37670  Biso   1.000  C
  C36      1.0000 0.28510  0.13090  0.36480  Biso   1.000  C
  O5       1.0000 0.68460  0.02060  0.36990  Biso   1.000  O
  N1       1.0000 0.17250  0.00430  0.40590  Biso   1.000  N
  C37      1.0000 0.15990  0.05330  0.41690  Biso   1.000  C
  C38      1.0000 0.10800  0.06170  0.44010  Biso   1.000  C
  C39      1.0000 0.06790  0.02100  0.45210  Biso   1.000  C
  C40      1.0000 0.08000  0.97220  0.44110  Biso   1.000  C
  C41      1.0000 0.13300  0.96380  0.41800  Biso   1.000  C
  O6       1.0000 0.81160  0.04640  0.36960  Biso   1.000  O
  N2       1.0000 0.27900  0.95280  0.38020  Biso   1.000  N
  C42      1.0000 0.33300  0.94940  0.40300  Biso   1.000  C
  C43      1.0000 0.36800  0.90300  0.40860  Biso   1.000  C
  C44      1.0000 0.34800  0.86040  0.39130  Biso   1.000  C
  C45      1.0000 0.29400  0.86380  0.36850  Biso   1.000  C
  C46      1.0000 0.25900  0.91000  0.36300  Biso   1.000  C
  C47      1.0000 0.32700  0.04200  0.41080  Biso   1.000  C
  C48      1.0000 0.36100  0.99640  0.41790  Biso   1.000  C
  C49      1.0000 0.41600  0.99500  0.44030  Biso   1.000  C
  C50      1.0000 0.43700  0.03900  0.45560  Biso   1.000  C
  C51      1.0000 0.40300  0.08500  0.44860  Biso   1.000  C
  C52      1.0000 0.34800  0.08640  0.42620  Biso   1.000  C
  Ir1      1.0000 0.24830  0.02460  0.37348  Biso   1.000  Ir
  Zn2      1.0000 0.65490  0.04096  0.32607  Biso   1.000  Zn
  C53      1.0000 0.75840  0.46470  0.19940  Biso   1.000  C
  O7       1.0000 0.69160  0.09630  0.30150  Biso   1.000  O
  O8       1.0000 0.69290  0.48710  0.20300  Biso   1.000  O
  O9       1.0000 0.82100  0.47650  0.18440  Biso   1.000  O
  O10      1.0000 0.55200  0.03280  0.33720  Biso   1.000  O
  C54      1.0000 0.68360  0.24650  0.26750  Biso   1.000  C
  C55      1.0000 0.81470  0.24880  0.26840  Biso   1.000  C
  C56      1.0000 0.68560  0.34420  0.23730  Biso   1.000  C
  C57      1.0000 0.81660  0.34080  0.23960  Biso   1.000  C
  Ir2      1.0000 0.60340  0.28900  0.25250  Biso   1.000  Ir
  Ir3      1.0000 0.89600  0.29380  0.25380  Biso   1.000  Ir
  C58      1.0000 0.97300  0.24040  0.26580  Biso   1.000  C
  C59      1.0000 0.00900  0.26360  0.29090  Biso   1.000  C
  C60      1.0000 0.06500  0.23800  0.30650  Biso   1.000  C
  C61      1.0000 0.08500  0.19000  0.29700  Biso   1.000  C
  C62      1.0000 0.05000  0.16680  0.27180  Biso   1.000  C
  C63      1.0000 0.99400  0.19200  0.25620  Biso   1.000  C
  N3       1.0000 0.93500  0.34300  0.28670  Biso   1.000  N
  C64      1.0000 0.99100  0.31570  0.30090  Biso   1.000  C
  C65      1.0000 0.02700  0.33600  0.32680  Biso   1.000  C
  C66      1.0000 0.00800  0.38300  0.33840  Biso   1.000  C
  C67      1.0000 0.95200  0.41100  0.32410  Biso   1.000  C
  C68      1.0000 0.91500  0.39000  0.29820  Biso   1.000  C
  C69      1.0000 0.10400  0.23900  0.27920  Biso   1.000  C
  C70      1.0000 0.05500  0.26050  0.30060  Biso   1.000  C
  C71      1.0000 0.04200  0.23600  0.32900  Biso   1.000  C
  C72      1.0000 0.07600  0.19100  0.33610  Biso   1.000  C
  C73      1.0000 0.12500  0.17000  0.31500  Biso   1.000  C
  C74      1.0000 0.13900  0.19400  0.28620  Biso   1.000  C
  N4       1.0000 0.02600  0.33300  0.26480  Biso   1.000  N
  C75      1.0000 0.01600  0.30780  0.29330  Biso   1.000  C
  C76      1.0000 0.97100  0.32900  0.31630  Biso   1.000  C
  C77      1.0000 0.93600  0.37500  0.31080  Biso   1.000  C
  C78      1.0000 0.94600  0.40000  0.28220  Biso   1.000  C
  C79      1.0000 0.99100  0.37900  0.25920  Biso   1.000  C
  C80      1.0000 0.58000  0.34180  0.29170  Biso   1.000  C
  C81      1.0000 0.53400  0.38100  0.28230  Biso   1.000  C
  C82      1.0000 0.51400  0.41900  0.30350  Biso   1.000  C
  C83      1.0000 0.54100  0.41800  0.33410  Biso   1.000  C
  C84      1.0000 0.58800  0.37900  0.34350  Biso   1.000  C
  C85      1.0000 0.60700  0.34100  0.32230  Biso   1.000  C
  N5       1.0000 0.52700  0.34090  0.23110  Biso   1.000  N
  C86      1.0000 0.50400  0.38000  0.24980  Biso   1.000  C
  C87      1.0000 0.46300  0.41900  0.24050  Biso   1.000  C
  C88      1.0000 0.43700  0.41800  0.20960  Biso   1.000  C
  C89      1.0000 0.45700  0.37900  0.18950  Biso   1.000  C
  C90      1.0000 0.50200  0.34000  0.20030  Biso   1.000  C
  N6       1.0000 0.51900  0.24700  0.27170  Biso   1.000  N
  C91      1.0000 0.44900  0.17260  0.25830  Biso   1.000  C
  C92      1.0000 0.41000  0.17700  0.28620  Biso   1.000  C
  C93      1.0000 0.42600  0.21700  0.30690  Biso   1.000  C
  C94      1.0000 0.48000  0.25200  0.29970  Biso   1.000  C
  C95      1.0000 0.60000  0.23940  0.21670  Biso   1.000  C
  C96      1.0000 0.54600  0.20300  0.22160  Biso   1.000  C
  C97      1.0000 0.53500  0.16500  0.19940  Biso   1.000  C
  C98      1.0000 0.57700  0.16300  0.17220  Biso   1.000  C
  C99      1.0000 0.63100  0.20000  0.16730  Biso   1.000  C
  C100     1.0000 0.64200  0.23800  0.18950  Biso   1.000  C
  N7       1.0000 0.32260  0.96250  0.66670  Biso   1.000  N
  N8       1.0000 0.17720  0.96710  0.66510  Biso   1.000  N
  C101     1.0000 0.25240  0.62260  0.30290  Biso   1.000  C
  C102     1.0000 0.25110  0.67480  0.28730  Biso   1.000  C
  C103     1.0000 0.18490  0.69800  0.28040  Biso   1.000  C
  C104     1.0000 0.24900  0.77200  0.26150  Biso   1.000  C
  C105     1.0000 0.31600  0.70030  0.28130  Biso   1.000  C
  O11      1.0000 0.31640  0.60950  0.31640  Biso   1.000  O
  C106     1.0000 0.25680  0.91350  0.21670  Biso   1.000  C
  C107     1.0000 0.18940  0.89150  0.22280  Biso   1.000  C
  C108     1.0000 0.24900  0.81890  0.24570  Biso   1.000  C
  C109     1.0000 0.32040  0.88810  0.22510  Biso   1.000  C
  C110     1.0000 0.02600  0.54330  0.30880  Biso   1.000  C
  C111     1.0000 0.93880  0.54650  0.30750  Biso   1.000  C
  C112     1.0000 0.89810  0.54120  0.33490  Biso   1.000  C
  C113     1.0000 0.82260  0.53750  0.33330  Biso   1.000  C
  C114     1.0000 0.78790  0.53920  0.30420  Biso   1.000  C
  C115     1.0000 0.82860  0.54450  0.27670  Biso   1.000  C
  C116     1.0000 0.90410  0.54810  0.27840  Biso   1.000  C
  O12      1.0000 0.06020  0.55150  0.28090  Biso   1.000  O
  C117     1.0000 0.47260  0.54170  0.31600  Biso   1.000  C
  C118     1.0000 0.55770  0.53550  0.31160  Biso   1.000  C
  C119     1.0000 0.60180  0.53140  0.33810  Biso   1.000  C
  C120     1.0000 0.67720  0.53290  0.33490  Biso   1.000  C
  C121     1.0000 0.70840  0.53850  0.30530  Biso   1.000  C
  C122     1.0000 0.66420  0.54270  0.27880  Biso   1.000  C
  C123     1.0000 0.58890  0.54120  0.28190  Biso   1.000  C
  O13      1.0000 0.45340  0.54930  0.34560  Biso   1.000  O
  O14      1.0000 0.43360  0.53860  0.28960  Biso   1.000  O
  C124     1.0000 0.24950  0.53000  0.38310  Biso   1.000  C
  C125     1.0000 0.25150  0.51990  0.41860  Biso   1.000  C
  C126     1.0000 0.31390  0.53020  0.43600  Biso   1.000  C
  C127     1.0000 0.31500  0.52090  0.46830  Biso   1.000  C
  C128     1.0000 0.25360  0.50130  0.48310  Biso   1.000  C
  C129     1.0000 0.19110  0.49110  0.46570  Biso   1.000  C
  C130     1.0000 0.19010  0.50040  0.43340  Biso   1.000  C
  Zn3      1.0000 0.34400  0.54120  0.32649  Biso   1.000  Zn
  C131     1.0000 0.74880  0.58900  0.37710  Biso   1.000  C
  C132     1.0000 0.69840  0.59530  0.40120  Biso   1.000  C
  C133     1.0000 0.68430  0.64350  0.41310  Biso   1.000  C
  C134     1.0000 0.72100  0.68550  0.40080  Biso   1.000  C
  C135     1.0000 0.77100  0.67920  0.37670  Biso   1.000  C
  C136     1.0000 0.78510  0.63090  0.36480  Biso   1.000  C
  O15      1.0000 0.18460  0.52060  0.36990  Biso   1.000  O
  N9       1.0000 0.67250  0.50430  0.40590  Biso   1.000  N
  C137     1.0000 0.65990  0.55330  0.41690  Biso   1.000  C
  C138     1.0000 0.60800  0.56170  0.44010  Biso   1.000  C
  C139     1.0000 0.56790  0.52100  0.45210  Biso   1.000  C
  C140     1.0000 0.58000  0.47220  0.44110  Biso   1.000  C
  C141     1.0000 0.63300  0.46380  0.41800  Biso   1.000  C
  O16      1.0000 0.31160  0.54640  0.36960  Biso   1.000  O
  N10      1.0000 0.77900  0.45280  0.38020  Biso   1.000  N
  C142     1.0000 0.83300  0.44940  0.40300  Biso   1.000  C
  C143     1.0000 0.86800  0.40300  0.40860  Biso   1.000  C
  C144     1.0000 0.84800  0.36040  0.39130  Biso   1.000  C
  C145     1.0000 0.79400  0.36380  0.36850  Biso   1.000  C
  C146     1.0000 0.75900  0.41000  0.36300  Biso   1.000  C
  C147     1.0000 0.82700  0.54200  0.41080  Biso   1.000  C
  C148     1.0000 0.86100  0.49640  0.41790  Biso   1.000  C
  C149     1.0000 0.91600  0.49500  0.44030  Biso   1.000  C
  C150     1.0000 0.93700  0.53900  0.45560  Biso   1.000  C
  C151     1.0000 0.90300  0.58500  0.44860  Biso   1.000  C
  C152     1.0000 0.84800  0.58640  0.42620  Biso   1.000  C
  Ir4      1.0000 0.74830  0.52460  0.37348  Biso   1.000  Ir
  Zn4      1.0000 0.15490  0.54096  0.32607  Biso   1.000  Zn
  C153     1.0000 0.25840  0.96470  0.19940  Biso   1.000  C
  O17      1.0000 0.19160  0.59630  0.30150  Biso   1.000  O
  O18      1.0000 0.19290  0.98710  0.20300  Biso   1.000  O
  O19      1.0000 0.32100  0.97650  0.18440  Biso   1.000  O
  O20      1.0000 0.05200  0.53280  0.33720  Biso   1.000  O
  C154     1.0000 0.18360  0.74650  0.26750  Biso   1.000  C
  C155     1.0000 0.31470  0.74880  0.26840  Biso   1.000  C
  C156     1.0000 0.18560  0.84420  0.23730  Biso   1.000  C
  C157     1.0000 0.31660  0.84080  0.23960  Biso   1.000  C
  Ir5      1.0000 0.10340  0.78900  0.25250  Biso   1.000  Ir
  Ir6      1.0000 0.39600  0.79380  0.25380  Biso   1.000  Ir
  C158     1.0000 0.47300  0.74040  0.26580  Biso   1.000  C
  C159     1.0000 0.50900  0.76360  0.29090  Biso   1.000  C
  C160     1.0000 0.56500  0.73800  0.30650  Biso   1.000  C
  C161     1.0000 0.58500  0.69000  0.29700  Biso   1.000  C
  C162     1.0000 0.55000  0.66680  0.27180  Biso   1.000  C
  C163     1.0000 0.49400  0.69200  0.25620  Biso   1.000  C
  N11      1.0000 0.43500  0.84300  0.28670  Biso   1.000  N
  C164     1.0000 0.49100  0.81570  0.30090  Biso   1.000  C
  C165     1.0000 0.52700  0.83600  0.32680  Biso   1.000  C
  C166     1.0000 0.50800  0.88300  0.33840  Biso   1.000  C
  C167     1.0000 0.45200  0.91100  0.32410  Biso   1.000  C
  C168     1.0000 0.41500  0.89000  0.29820  Biso   1.000  C
  C169     1.0000 0.60400  0.73900  0.27920  Biso   1.000  C
  C170     1.0000 0.55500  0.76050  0.30060  Biso   1.000  C
  C171     1.0000 0.54200  0.73600  0.32900  Biso   1.000  C
  C172     1.0000 0.57600  0.69100  0.33610  Biso   1.000  C
  C173     1.0000 0.62500  0.67000  0.31500  Biso   1.000  C
  C174     1.0000 0.63900  0.69400  0.28620  Biso   1.000  C
  N12      1.0000 0.52600  0.83300  0.26480  Biso   1.000  N
  C175     1.0000 0.51600  0.80780  0.29330  Biso   1.000  C
  C176     1.0000 0.47100  0.82900  0.31630  Biso   1.000  C
  C177     1.0000 0.43600  0.87500  0.31080  Biso   1.000  C
  C178     1.0000 0.44600  0.90000  0.28220  Biso   1.000  C
  C179     1.0000 0.49100  0.87900  0.25920  Biso   1.000  C
  C180     1.0000 0.08000  0.84180  0.29170  Biso   1.000  C
  C181     1.0000 0.03400  0.88100  0.28230  Biso   1.000  C
  C182     1.0000 0.01400  0.91900  0.30350  Biso   1.000  C
  C183     1.0000 0.04100  0.91800  0.33410  Biso   1.000  C
  C184     1.0000 0.08800  0.87900  0.34350  Biso   1.000  C
  C185     1.0000 0.10700  0.84100  0.32230  Biso   1.000  C
  N13      1.0000 0.02700  0.84090  0.23110  Biso   1.000  N
  C186     1.0000 0.00400  0.88000  0.24980  Biso   1.000  C
  C187     1.0000 0.96300  0.91900  0.24050  Biso   1.000  C
  C188     1.0000 0.93700  0.91800  0.20960  Biso   1.000  C
  C189     1.0000 0.95700  0.87900  0.18950  Biso   1.000  C
  C190     1.0000 0.00200  0.84000  0.20030  Biso   1.000  C
  N14      1.0000 0.01900  0.74700  0.27170  Biso   1.000  N
  C191     1.0000 0.94900  0.67260  0.25830  Biso   1.000  C
  C192     1.0000 0.91000  0.67700  0.28620  Biso   1.000  C
  C193     1.0000 0.92600  0.71700  0.30690  Biso   1.000  C
  C194     1.0000 0.98000  0.75200  0.29970  Biso   1.000  C
  C195     1.0000 0.10000  0.73940  0.21670  Biso   1.000  C
  C196     1.0000 0.04600  0.70300  0.22160  Biso   1.000  C
  C197     1.0000 0.03500  0.66500  0.19940  Biso   1.000  C
  C198     1.0000 0.07700  0.66300  0.17220  Biso   1.000  C
  C199     1.0000 0.13100  0.70000  0.16730  Biso   1.000  C
  C200     1.0000 0.14200  0.73800  0.18950  Biso   1.000  C
  N15      1.0000 0.82260  0.46250  0.66670  Biso   1.000  N
  N16      1.0000 0.67720  0.46710  0.66510  Biso   1.000  N
  C201     1.0000 0.24760  0.87740  0.80290  Biso   1.000  C
  C202     1.0000 0.24890  0.82520  0.78730  Biso   1.000  C
  C203     1.0000 0.31510  0.80200  0.78040  Biso   1.000  C
  C204     1.0000 0.25100  0.72800  0.76150  Biso   1.000  C
  C205     1.0000 0.18400  0.79970  0.78130  Biso   1.000  C
  O21      1.0000 0.18360  0.89050  0.81640  Biso   1.000  O
  C206     1.0000 0.24320  0.58650  0.71670  Biso   1.000  C
  C207     1.0000 0.31060  0.60850  0.72280  Biso   1.000  C
  C208     1.0000 0.25100  0.68110  0.74570  Biso   1.000  C
  C209     1.0000 0.17960  0.61190  0.72510  Biso   1.000  C
  C210     1.0000 0.47400  0.95670  0.80880  Biso   1.000  C
  C211     1.0000 0.56120  0.95350  0.80750  Biso   1.000  C
  C212     1.0000 0.60190  0.95880  0.83490  Biso   1.000  C
  C213     1.0000 0.67740  0.96250  0.83330  Biso   1.000  C
  C214     1.0000 0.71210  0.96080  0.80420  Biso   1.000  C
  C215     1.0000 0.67140  0.95550  0.77670  Biso   1.000  C
  C216     1.0000 0.59590  0.95190  0.77840  Biso   1.000  C
  O22      1.0000 0.43980  0.94850  0.78090  Biso   1.000  O
  C217     1.0000 0.02740  0.95830  0.81600  Biso   1.000  C
  C218     1.0000 0.94230  0.96450  0.81160  Biso   1.000  C
  C219     1.0000 0.89820  0.96860  0.83810  Biso   1.000  C
  C220     1.0000 0.82280  0.96710  0.83490  Biso   1.000  C
  C221     1.0000 0.79160  0.96150  0.80530  Biso   1.000  C
  C222     1.0000 0.83580  0.95730  0.77880  Biso   1.000  C
  C223     1.0000 0.91110  0.95880  0.78190  Biso   1.000  C
  O23      1.0000 0.04660  0.95070  0.84560  Biso   1.000  O
  O24      1.0000 0.06640  0.96140  0.78960  Biso   1.000  O
  C224     1.0000 0.25050  0.97000  0.88310  Biso   1.000  C
  C225     1.0000 0.24850  0.98010  0.91860  Biso   1.000  C
  C226     1.0000 0.18610  0.96980  0.93600  Biso   1.000  C
  C227     1.0000 0.18500  0.97910  0.96830  Biso   1.000  C
  C228     1.0000 0.24640  0.99870  0.98310  Biso   1.000  C
  C229     1.0000 0.30890  0.00890  0.96570  Biso   1.000  C
  C230     1.0000 0.30990  0.99960  0.93340  Biso   1.000  C
  Zn5      1.0000 0.15600  0.95880  0.82649  Biso   1.000  Zn
  C231     1.0000 0.75120  0.91100  0.87710  Biso   1.000  C
  C232     1.0000 0.80160  0.90470  0.90120  Biso   1.000  C
  C233     1.0000 0.81570  0.85650  0.91310  Biso   1.000  C
  C234     1.0000 0.77900  0.81450  0.90080  Biso   1.000  C
  C235     1.0000 0.72900  0.82080  0.87670  Biso   1.000  C
  C236     1.0000 0.71490  0.86910  0.86480  Biso   1.000  C
  O25      1.0000 0.31540  0.97940  0.86990  Biso   1.000  O
  N17      1.0000 0.82750  0.99570  0.90590  Biso   1.000  N
  C237     1.0000 0.84010  0.94670  0.91690  Biso   1.000  C
  C238     1.0000 0.89200  0.93830  0.94010  Biso   1.000  C
  C239     1.0000 0.93210  0.97900  0.95210  Biso   1.000  C
  C240     1.0000 0.92000  0.02780  0.94110  Biso   1.000  C
  C241     1.0000 0.86700  0.03620  0.91800  Biso   1.000  C
  O26      1.0000 0.18840  0.95360  0.86960  Biso   1.000  O
  N18      1.0000 0.72100  0.04720  0.88020  Biso   1.000  N
  C242     1.0000 0.66700  0.05060  0.90300  Biso   1.000  C
  C243     1.0000 0.63200  0.09700  0.90860  Biso   1.000  C
  C244     1.0000 0.65200  0.13960  0.89130  Biso   1.000  C
  C245     1.0000 0.70600  0.13620  0.86850  Biso   1.000  C
  C246     1.0000 0.74100  0.09000  0.86300  Biso   1.000  C
  C247     1.0000 0.67300  0.95800  0.91080  Biso   1.000  C
  C248     1.0000 0.63900  0.00360  0.91790  Biso   1.000  C
  C249     1.0000 0.58400  0.00500  0.94030  Biso   1.000  C
  C250     1.0000 0.56300  0.96100  0.95560  Biso   1.000  C
  C251     1.0000 0.59700  0.91500  0.94860  Biso   1.000  C
  C252     1.0000 0.65200  0.91360  0.92620  Biso   1.000  C
  Ir7      1.0000 0.75170  0.97540  0.87348  Biso   1.000  Ir
  Zn6      1.0000 0.34510  0.95904  0.82607  Biso   1.000  Zn
  C253     1.0000 0.24160  0.53530  0.69940  Biso   1.000  C
  O27      1.0000 0.30840  0.90370  0.80150  Biso   1.000  O
  O28      1.0000 0.30710  0.51290  0.70300  Biso   1.000  O
  O29      1.0000 0.17900  0.52350  0.68440  Biso   1.000  O
  O30      1.0000 0.44800  0.96720  0.83720  Biso   1.000  O
  C254     1.0000 0.31640  0.75350  0.76750  Biso   1.000  C
  C255     1.0000 0.18530  0.75120  0.76840  Biso   1.000  C
  C256     1.0000 0.31440  0.65580  0.73730  Biso   1.000  C
  C257     1.0000 0.18340  0.65920  0.73960  Biso   1.000  C
  Ir8      1.0000 0.39660  0.71100  0.75250  Biso   1.000  Ir
  Ir9      1.0000 0.10400  0.70620  0.75380  Biso   1.000  Ir
  C258     1.0000 0.02700  0.75960  0.76580  Biso   1.000  C
  C259     1.0000 0.99100  0.73640  0.79090  Biso   1.000  C
  C260     1.0000 0.93500  0.76200  0.80650  Biso   1.000  C
  C261     1.0000 0.91500  0.81000  0.79700  Biso   1.000  C
  C262     1.0000 0.95000  0.83320  0.77180  Biso   1.000  C
  C263     1.0000 0.00600  0.80800  0.75620  Biso   1.000  C
  N19      1.0000 0.06500  0.65700  0.78670  Biso   1.000  N
  C264     1.0000 0.00900  0.68430  0.80090  Biso   1.000  C
  C265     1.0000 0.97300  0.66400  0.82680  Biso   1.000  C
  C266     1.0000 0.99200  0.61700  0.83840  Biso   1.000  C
  C267     1.0000 0.04800  0.58900  0.82410  Biso   1.000  C
  C268     1.0000 0.08500  0.61000  0.79820  Biso   1.000  C
  C269     1.0000 0.89600  0.76100  0.77920  Biso   1.000  C
  C270     1.0000 0.94500  0.73950  0.80060  Biso   1.000  C
  C271     1.0000 0.95800  0.76400  0.82900  Biso   1.000  C
  C272     1.0000 0.92400  0.80900  0.83610  Biso   1.000  C
  C273     1.0000 0.87500  0.83000  0.81500  Biso   1.000  C
  C274     1.0000 0.86100  0.80600  0.78620  Biso   1.000  C
  N20      1.0000 0.97400  0.66700  0.76480  Biso   1.000  N
  C275     1.0000 0.98400  0.69220  0.79330  Biso   1.000  C
  C276     1.0000 0.02900  0.67100  0.81630  Biso   1.000  C
  C277     1.0000 0.06400  0.62500  0.81080  Biso   1.000  C
  C278     1.0000 0.05400  0.60000  0.78220  Biso   1.000  C
  C279     1.0000 0.00900  0.62100  0.75920  Biso   1.000  C
  C280     1.0000 0.42000  0.65820  0.79170  Biso   1.000  C
  C281     1.0000 0.46600  0.61900  0.78230  Biso   1.000  C
  C282     1.0000 0.48600  0.58100  0.80350  Biso   1.000  C
  C283     1.0000 0.45900  0.58200  0.83410  Biso   1.000  C
  C284     1.0000 0.41200  0.62100  0.84350  Biso   1.000  C
  C285     1.0000 0.39300  0.65900  0.82230  Biso   1.000  C
  N21      1.0000 0.47300  0.65910  0.73110  Biso   1.000  N
  C286     1.0000 0.49600  0.62000  0.74980  Biso   1.000  C
  C287     1.0000 0.53700  0.58100  0.74050  Biso   1.000  C
  C288     1.0000 0.56300  0.58200  0.70960  Biso   1.000  C
  C289     1.0000 0.54300  0.62100  0.68950  Biso   1.000  C
  C290     1.0000 0.49800  0.66000  0.70030  Biso   1.000  C
  N22      1.0000 0.48100  0.75300  0.77170  Biso   1.000  N
  C291     1.0000 0.55100  0.82740  0.75830  Biso   1.000  C
  C292     1.0000 0.59000  0.82300  0.78620  Biso   1.000  C
  C293     1.0000 0.57400  0.78300  0.80690  Biso   1.000  C
  C294     1.0000 0.52000  0.74800  0.79970  Biso   1.000  C
  C295     1.0000 0.40000  0.76060  0.71670  Biso   1.000  C
  C296     1.0000 0.45400  0.79700  0.72160  Biso   1.000  C
  C297     1.0000 0.46500  0.83500  0.69940  Biso   1.000  C
  C298     1.0000 0.42300  0.83700  0.67220  Biso   1.000  C
  C299     1.0000 0.36900  0.80000  0.66730  Biso   1.000  C
  C300     1.0000 0.35800  0.76200  0.68950  Biso   1.000  C
  N23      1.0000 0.67740  0.03750  0.16670  Biso   1.000  N
  N24      1.0000 0.82280  0.03290  0.16510  Biso   1.000  N
  C301     1.0000 0.74760  0.37740  0.80290  Biso   1.000  C
  C302     1.0000 0.74890  0.32520  0.78730  Biso   1.000  C
  C303     1.0000 0.81510  0.30200  0.78040  Biso   1.000  C
  C304     1.0000 0.75100  0.22800  0.76150  Biso   1.000  C
  C305     1.0000 0.68400  0.29970  0.78130  Biso   1.000  C
  O31      1.0000 0.68360  0.39050  0.81640  Biso   1.000  O
  C306     1.0000 0.74320  0.08650  0.71670  Biso   1.000  C
  C307     1.0000 0.81060  0.10850  0.72280  Biso   1.000  C
  C308     1.0000 0.75100  0.18110  0.74570  Biso   1.000  C
  C309     1.0000 0.67960  0.11190  0.72510  Biso   1.000  C
  C310     1.0000 0.97400  0.45670  0.80880  Biso   1.000  C
  C311     1.0000 0.06120  0.45350  0.80750  Biso   1.000  C
  C312     1.0000 0.10190  0.45880  0.83490  Biso   1.000  C
  C313     1.0000 0.17740  0.46250  0.83330  Biso   1.000  C
  C314     1.0000 0.21210  0.46080  0.80420  Biso   1.000  C
  C315     1.0000 0.17140  0.45550  0.77670  Biso   1.000  C
  C316     1.0000 0.09590  0.45190  0.77840  Biso   1.000  C
  O32      1.0000 0.93980  0.44850  0.78090  Biso   1.000  O
  C317     1.0000 0.52740  0.45830  0.81600  Biso   1.000  C
  C318     1.0000 0.44230  0.46450  0.81160  Biso   1.000  C
  C319     1.0000 0.39820  0.46860  0.83810  Biso   1.000  C
  C320     1.0000 0.32280  0.46710  0.83490  Biso   1.000  C
  C321     1.0000 0.29160  0.46150  0.80530  Biso   1.000  C
  C322     1.0000 0.33580  0.45730  0.77880  Biso   1.000  C
  C323     1.0000 0.41110  0.45880  0.78190  Biso   1.000  C
  O33      1.0000 0.54660  0.45070  0.84560  Biso   1.000  O
  O34      1.0000 0.56640  0.46140  0.78960  Biso   1.000  O
  C324     1.0000 0.75050  0.47000  0.88310  Biso   1.000  C
  C325     1.0000 0.74850  0.48010  0.91860  Biso   1.000  C
  C326     1.0000 0.68610  0.46980  0.93600  Biso   1.000  C
  C327     1.0000 0.68500  0.47910  0.96830  Biso   1.000  C
  C328     1.0000 0.74640  0.49870  0.98310  Biso   1.000  C
  C329     1.0000 0.80890  0.50890  0.96570  Biso   1.000  C
  C330     1.0000 0.80990  0.49960  0.93340  Biso   1.000  C
  Zn7      1.0000 0.65600  0.45880  0.82649  Biso   1.000  Zn
  C331     1.0000 0.25120  0.41100  0.87710  Biso   1.000  C
  C332     1.0000 0.30160  0.40470  0.90120  Biso   1.000  C
  C333     1.0000 0.31570  0.35650  0.91310  Biso   1.000  C
  C334     1.0000 0.27900  0.31450  0.90080  Biso   1.000  C
  C335     1.0000 0.22900  0.32080  0.87670  Biso   1.000  C
  C336     1.0000 0.21490  0.36910  0.86480  Biso   1.000  C
  O35      1.0000 0.81540  0.47940  0.86990  Biso   1.000  O
  N25      1.0000 0.32750  0.49570  0.90590  Biso   1.000  N
  C337     1.0000 0.34010  0.44670  0.91690  Biso   1.000  C
  C338     1.0000 0.39200  0.43830  0.94010  Biso   1.000  C
  C339     1.0000 0.43210  0.47900  0.95210  Biso   1.000  C
  C340     1.0000 0.42000  0.52780  0.94110  Biso   1.000  C
  C341     1.0000 0.36700  0.53620  0.91800  Biso   1.000  C
  O36      1.0000 0.68840  0.45360  0.86960  Biso   1.000  O
  N26      1.0000 0.22100  0.54720  0.88020  Biso   1.000  N
  C342     1.0000 0.16700  0.55060  0.90300  Biso   1.000  C
  C343     1.0000 0.13200  0.59700  0.90860  Biso   1.000  C
  C344     1.0000 0.15200  0.63960  0.89130  Biso   1.000  C
  C345     1.0000 0.20600  0.63620  0.86850  Biso   1.000  C
  C346     1.0000 0.24100  0.59000  0.86300  Biso   1.000  C
  C347     1.0000 0.17300  0.45800  0.91080  Biso   1.000  C
  C348     1.0000 0.13900  0.50360  0.91790  Biso   1.000  C
  C349     1.0000 0.08400  0.50500  0.94030  Biso   1.000  C
  C350     1.0000 0.06300  0.46100  0.95560  Biso   1.000  C
  C351     1.0000 0.09700  0.41500  0.94860  Biso   1.000  C
  C352     1.0000 0.15200  0.41360  0.92620  Biso   1.000  C
  Ir10     1.0000 0.25170  0.47540  0.87348  Biso   1.000  Ir
  Zn8      1.0000 0.84510  0.45904  0.82607  Biso   1.000  Zn
  C353     1.0000 0.74160  0.03530  0.69940  Biso   1.000  C
  O37      1.0000 0.80840  0.40370  0.80150  Biso   1.000  O
  O38      1.0000 0.80710  0.01290  0.70300  Biso   1.000  O
  O39      1.0000 0.67900  0.02350  0.68440  Biso   1.000  O
  O40      1.0000 0.94800  0.46720  0.83720  Biso   1.000  O
  C354     1.0000 0.81640  0.25350  0.76750  Biso   1.000  C
  C355     1.0000 0.68530  0.25120  0.76840  Biso   1.000  C
  C356     1.0000 0.81440  0.15580  0.73730  Biso   1.000  C
  C357     1.0000 0.68340  0.15920  0.73960  Biso   1.000  C
  Ir11     1.0000 0.89660  0.21100  0.75250  Biso   1.000  Ir
  Ir12     1.0000 0.60400  0.20620  0.75380  Biso   1.000  Ir
  C358     1.0000 0.52700  0.25960  0.76580  Biso   1.000  C
  C359     1.0000 0.49100  0.23640  0.79090  Biso   1.000  C
  C360     1.0000 0.43500  0.26200  0.80650  Biso   1.000  C
  C361     1.0000 0.41500  0.31000  0.79700  Biso   1.000  C
  C362     1.0000 0.45000  0.33320  0.77180  Biso   1.000  C
  C363     1.0000 0.50600  0.30800  0.75620  Biso   1.000  C
  N27      1.0000 0.56500  0.15700  0.78670  Biso   1.000  N
  C364     1.0000 0.50900  0.18430  0.80090  Biso   1.000  C
  C365     1.0000 0.47300  0.16400  0.82680  Biso   1.000  C
  C366     1.0000 0.49200  0.11700  0.83840  Biso   1.000  C
  C367     1.0000 0.54800  0.08900  0.82410  Biso   1.000  C
  C368     1.0000 0.58500  0.11000  0.79820  Biso   1.000  C
  C369     1.0000 0.39600  0.26100  0.77920  Biso   1.000  C
  C370     1.0000 0.44500  0.23950  0.80060  Biso   1.000  C
  C371     1.0000 0.45800  0.26400  0.82900  Biso   1.000  C
  C372     1.0000 0.42400  0.30900  0.83610  Biso   1.000  C
  C373     1.0000 0.37500  0.33000  0.81500  Biso   1.000  C
  C374     1.0000 0.36100  0.30600  0.78620  Biso   1.000  C
  N28      1.0000 0.47400  0.16700  0.76480  Biso   1.000  N
  C375     1.0000 0.48400  0.19220  0.79330  Biso   1.000  C
  C376     1.0000 0.52900  0.17100  0.81630  Biso   1.000  C
  C377     1.0000 0.56400  0.12500  0.81080  Biso   1.000  C
  C378     1.0000 0.55400  0.10000  0.78220  Biso   1.000  C
  C379     1.0000 0.50900  0.12100  0.75920  Biso   1.000  C
  C380     1.0000 0.92000  0.15820  0.79170  Biso   1.000  C
  C381     1.0000 0.96600  0.11900  0.78230  Biso   1.000  C
  C382     1.0000 0.98600  0.08100  0.80350  Biso   1.000  C
  C383     1.0000 0.95900  0.08200  0.83410  Biso   1.000  C
  C384     1.0000 0.91200  0.12100  0.84350  Biso   1.000  C
  C385     1.0000 0.89300  0.15900  0.82230  Biso   1.000  C
  N29      1.0000 0.97300  0.15910  0.73110  Biso   1.000  N
  C386     1.0000 0.99600  0.12000  0.74980  Biso   1.000  C
  C387     1.0000 0.03700  0.08100  0.74050  Biso   1.000  C
  C388     1.0000 0.06300  0.08200  0.70960  Biso   1.000  C
  C389     1.0000 0.04300  0.12100  0.68950  Biso   1.000  C
  C390     1.0000 0.99800  0.16000  0.70030  Biso   1.000  C
  N30      1.0000 0.98100  0.25300  0.77170  Biso   1.000  N
  C391     1.0000 0.05100  0.32740  0.75830  Biso   1.000  C
  C392     1.0000 0.09000  0.32300  0.78620  Biso   1.000  C
  C393     1.0000 0.07400  0.28300  0.80690  Biso   1.000  C
  C394     1.0000 0.02000  0.24800  0.79970  Biso   1.000  C
  C395     1.0000 0.90000  0.26060  0.71670  Biso   1.000  C
  C396     1.0000 0.95400  0.29700  0.72160  Biso   1.000  C
  C397     1.0000 0.96500  0.33500  0.69940  Biso   1.000  C
  C398     1.0000 0.92300  0.33700  0.67220  Biso   1.000  C
  C399     1.0000 0.86900  0.30000  0.66730  Biso   1.000  C
  C400     1.0000 0.85800  0.26200  0.68950  Biso   1.000  C
  N31      1.0000 0.17740  0.53750  0.16670  Biso   1.000  N
  N32      1.0000 0.32280  0.53290  0.16510  Biso   1.000  N
  C401     1.0000 0.24760  0.12260  0.19710  Biso   1.000  C
  C402     1.0000 0.24890  0.17480  0.21270  Biso   1.000  C
  C403     1.0000 0.31510  0.19800  0.21960  Biso   1.000  C
  C404     1.0000 0.25100  0.27200  0.23850  Biso   1.000  C
  C405     1.0000 0.18400  0.20030  0.21870  Biso   1.000  C
  O41      1.0000 0.18360  0.10950  0.18360  Biso   1.000  O
  C406     1.0000 0.24320  0.41350  0.28330  Biso   1.000  C
  C407     1.0000 0.31060  0.39150  0.27720  Biso   1.000  C
  C408     1.0000 0.25100  0.31890  0.25430  Biso   1.000  C
  C409     1.0000 0.17960  0.38810  0.27490  Biso   1.000  C
  C410     1.0000 0.47400  0.04330  0.19120  Biso   1.000  C
  C411     1.0000 0.56120  0.04650  0.19250  Biso   1.000  C
  C412     1.0000 0.60190  0.04120  0.16510  Biso   1.000  C
  C413     1.0000 0.71210  0.03920  0.19580  Biso   1.000  C
  C414     1.0000 0.67140  0.04450  0.22330  Biso   1.000  C
  C415     1.0000 0.59590  0.04810  0.22160  Biso   1.000  C
  O42      1.0000 0.43980  0.05150  0.21910  Biso   1.000  O
  C416     1.0000 0.02740  0.04170  0.18400  Biso   1.000  C
  C417     1.0000 0.94230  0.03550  0.18840  Biso   1.000  C
  C418     1.0000 0.89820  0.03140  0.16190  Biso   1.000  C
  C419     1.0000 0.79160  0.03850  0.19470  Biso   1.000  C
  C420     1.0000 0.83580  0.04270  0.22120  Biso   1.000  C
  C421     1.0000 0.91110  0.04120  0.21810  Biso   1.000  C
  O43      1.0000 0.04660  0.04930  0.15440  Biso   1.000  O
  O44      1.0000 0.06640  0.03860  0.21040  Biso   1.000  O
  C422     1.0000 0.25050  0.03000  0.11690  Biso   1.000  C
  C423     1.0000 0.24850  0.01990  0.08140  Biso   1.000  C
  C424     1.0000 0.18610  0.03020  0.06400  Biso   1.000  C
  C425     1.0000 0.18500  0.02090  0.03170  Biso   1.000  C
  C426     1.0000 0.24640  0.00130  0.01690  Biso   1.000  C
  C427     1.0000 0.30890  0.99110  0.03430  Biso   1.000  C
  C428     1.0000 0.30990  0.00040  0.06660  Biso   1.000  C
  Zn9      1.0000 0.15600  0.04120  0.17351  Biso   1.000  Zn
  C429     1.0000 0.75120  0.08900  0.12290  Biso   1.000  C
  C430     1.0000 0.80160  0.09530  0.09880  Biso   1.000  C
  C431     1.0000 0.81570  0.14350  0.08690  Biso   1.000  C
  C432     1.0000 0.77900  0.18550  0.09920  Biso   1.000  C
  C433     1.0000 0.72900  0.17920  0.12330  Biso   1.000  C
  C434     1.0000 0.71490  0.13090  0.13520  Biso   1.000  C
  O45      1.0000 0.31540  0.02060  0.13010  Biso   1.000  O
  N33      1.0000 0.82750  0.00430  0.09410  Biso   1.000  N
  C435     1.0000 0.84010  0.05330  0.08310  Biso   1.000  C
  C436     1.0000 0.89200  0.06170  0.05990  Biso   1.000  C
  C437     1.0000 0.93210  0.02100  0.04790  Biso   1.000  C
  C438     1.0000 0.92000  0.97220  0.05890  Biso   1.000  C
  C439     1.0000 0.86700  0.96380  0.08200  Biso   1.000  C
  O46      1.0000 0.18840  0.04640  0.13040  Biso   1.000  O
  N34      1.0000 0.72100  0.95280  0.11980  Biso   1.000  N
  C440     1.0000 0.66700  0.94940  0.09700  Biso   1.000  C
  C441     1.0000 0.63200  0.90300  0.09140  Biso   1.000  C
  C442     1.0000 0.65200  0.86040  0.10870  Biso   1.000  C
  C443     1.0000 0.70600  0.86380  0.13150  Biso   1.000  C
  C444     1.0000 0.74100  0.91000  0.13700  Biso   1.000  C
  C445     1.0000 0.67300  0.04200  0.08920  Biso   1.000  C
  C446     1.0000 0.63900  0.99640  0.08210  Biso   1.000  C
  C447     1.0000 0.58400  0.99500  0.05970  Biso   1.000  C
  C448     1.0000 0.56300  0.03900  0.04440  Biso   1.000  C
  C449     1.0000 0.59700  0.08500  0.05140  Biso   1.000  C
  C450     1.0000 0.65200  0.08640  0.07380  Biso   1.000  C
  Ir13     1.0000 0.75170  0.02460  0.12652  Biso   1.000  Ir
  Zn10     1.0000 0.34510  0.04096  0.17393  Biso   1.000  Zn
  C451     1.0000 0.24160  0.46470  0.30060  Biso   1.000  C
  O47      1.0000 0.30840  0.09630  0.19850  Biso   1.000  O
  O48      1.0000 0.30710  0.48710  0.29700  Biso   1.000  O
  O49      1.0000 0.17900  0.47650  0.31560  Biso   1.000  O
  O50      1.0000 0.44800  0.03280  0.16280  Biso   1.000  O
  C452     1.0000 0.31640  0.24650  0.23250  Biso   1.000  C
  C453     1.0000 0.18530  0.24880  0.23160  Biso   1.000  C
  C454     1.0000 0.31440  0.34420  0.26270  Biso   1.000  C
  C455     1.0000 0.18340  0.34080  0.26040  Biso   1.000  C
  Ir14     1.0000 0.39660  0.28900  0.24750  Biso   1.000  Ir
  Ir15     1.0000 0.10400  0.29380  0.24620  Biso   1.000  Ir
  C456     1.0000 0.02700  0.24040  0.23420  Biso   1.000  C
  C457     1.0000 0.99100  0.26360  0.20910  Biso   1.000  C
  C458     1.0000 0.93500  0.23800  0.19350  Biso   1.000  C
  C459     1.0000 0.91500  0.19000  0.20300  Biso   1.000  C
  C460     1.0000 0.95000  0.16680  0.22820  Biso   1.000  C
  C461     1.0000 0.00600  0.19200  0.24380  Biso   1.000  C
  N35      1.0000 0.06500  0.34300  0.21330  Biso   1.000  N
  C462     1.0000 0.00900  0.31570  0.19910  Biso   1.000  C
  C463     1.0000 0.97300  0.33600  0.17320  Biso   1.000  C
  C464     1.0000 0.99200  0.38300  0.16160  Biso   1.000  C
  C465     1.0000 0.04800  0.41100  0.17590  Biso   1.000  C
  C466     1.0000 0.08500  0.39000  0.20180  Biso   1.000  C
  C467     1.0000 0.89600  0.23900  0.22080  Biso   1.000  C
  C468     1.0000 0.94500  0.26050  0.19940  Biso   1.000  C
  C469     1.0000 0.95800  0.23600  0.17100  Biso   1.000  C
  C470     1.0000 0.92400  0.19100  0.16390  Biso   1.000  C
  C471     1.0000 0.87500  0.17000  0.18500  Biso   1.000  C
  C472     1.0000 0.86100  0.19400  0.21380  Biso   1.000  C
  N36      1.0000 0.97400  0.33300  0.23520  Biso   1.000  N
  C473     1.0000 0.98400  0.30780  0.20670  Biso   1.000  C
  C474     1.0000 0.02900  0.32900  0.18370  Biso   1.000  C
  C475     1.0000 0.06400  0.37500  0.18920  Biso   1.000  C
  C476     1.0000 0.05400  0.40000  0.21780  Biso   1.000  C
  C477     1.0000 0.00900  0.37900  0.24080  Biso   1.000  C
  C478     1.0000 0.42000  0.34180  0.20830  Biso   1.000  C
  C479     1.0000 0.46600  0.38100  0.21770  Biso   1.000  C
  C480     1.0000 0.48600  0.41900  0.19650  Biso   1.000  C
  C481     1.0000 0.45900  0.41800  0.16590  Biso   1.000  C
  C482     1.0000 0.41200  0.37900  0.15650  Biso   1.000  C
  C483     1.0000 0.39300  0.34100  0.17770  Biso   1.000  C
  N37      1.0000 0.47300  0.34090  0.26890  Biso   1.000  N
  C484     1.0000 0.49600  0.38000  0.25020  Biso   1.000  C
  C485     1.0000 0.53700  0.41900  0.25950  Biso   1.000  C
  C486     1.0000 0.56300  0.41800  0.29040  Biso   1.000  C
  C487     1.0000 0.54300  0.37900  0.31050  Biso   1.000  C
  C488     1.0000 0.49800  0.34000  0.29970  Biso   1.000  C
  N38      1.0000 0.48100  0.24700  0.22830  Biso   1.000  N
  C489     1.0000 0.55100  0.17260  0.24170  Biso   1.000  C
  C490     1.0000 0.59000  0.17700  0.21380  Biso   1.000  C
  C491     1.0000 0.57400  0.21700  0.19310  Biso   1.000  C
  C492     1.0000 0.52000  0.25200  0.20030  Biso   1.000  C
  C493     1.0000 0.40000  0.23940  0.28330  Biso   1.000  C
  C494     1.0000 0.45400  0.20300  0.27840  Biso   1.000  C
  C495     1.0000 0.46500  0.16500  0.30060  Biso   1.000  C
  C496     1.0000 0.42300  0.16300  0.32780  Biso   1.000  C
  C497     1.0000 0.36900  0.20000  0.33270  Biso   1.000  C
  C498     1.0000 0.35800  0.23800  0.31050  Biso   1.000  C
  C499     1.0000 0.74760  0.62260  0.19710  Biso   1.000  C
  C500     1.0000 0.74890  0.67480  0.21270  Biso   1.000  C
  C501     1.0000 0.81510  0.69800  0.21960  Biso   1.000  C
  C502     1.0000 0.75100  0.77200  0.23850  Biso   1.000  C
  C503     1.0000 0.68400  0.70030  0.21870  Biso   1.000  C
  O51      1.0000 0.68360  0.60950  0.18360  Biso   1.000  O
  C504     1.0000 0.74320  0.91350  0.28330  Biso   1.000  C
  C505     1.0000 0.81060  0.89150  0.27720  Biso   1.000  C
  C506     1.0000 0.75100  0.81890  0.25430  Biso   1.000  C
  C507     1.0000 0.67960  0.88810  0.27490  Biso   1.000  C
  C508     1.0000 0.97400  0.54330  0.19120  Biso   1.000  C
  C509     1.0000 0.06120  0.54650  0.19250  Biso   1.000  C
  C510     1.0000 0.10190  0.54120  0.16510  Biso   1.000  C
  C511     1.0000 0.21210  0.53920  0.19580  Biso   1.000  C
  C512     1.0000 0.17140  0.54450  0.22330  Biso   1.000  C
  C513     1.0000 0.09590  0.54810  0.22160  Biso   1.000  C
  O52      1.0000 0.93980  0.55150  0.21910  Biso   1.000  O
  C514     1.0000 0.52740  0.54170  0.18400  Biso   1.000  C
  C515     1.0000 0.44230  0.53550  0.18840  Biso   1.000  C
  C516     1.0000 0.39820  0.53140  0.16190  Biso   1.000  C
  C517     1.0000 0.29160  0.53850  0.19470  Biso   1.000  C
  C518     1.0000 0.33580  0.54270  0.22120  Biso   1.000  C
  C519     1.0000 0.41110  0.54120  0.21810  Biso   1.000  C
  O53      1.0000 0.54660  0.54930  0.15440  Biso   1.000  O
  O54      1.0000 0.56640  0.53860  0.21040  Biso   1.000  O
  C520     1.0000 0.75050  0.53000  0.11690  Biso   1.000  C
  C521     1.0000 0.74850  0.51990  0.08140  Biso   1.000  C
  C522     1.0000 0.68610  0.53020  0.06400  Biso   1.000  C
  C523     1.0000 0.68500  0.52090  0.03170  Biso   1.000  C
  C524     1.0000 0.74640  0.50130  0.01690  Biso   1.000  C
  C525     1.0000 0.80890  0.49110  0.03430  Biso   1.000  C
  C526     1.0000 0.80990  0.50040  0.06660  Biso   1.000  C
  Zn11     1.0000 0.65600  0.54120  0.17351  Biso   1.000  Zn
  C527     1.0000 0.25120  0.58900  0.12290  Biso   1.000  C
  C528     1.0000 0.30160  0.59530  0.09880  Biso   1.000  C
  C529     1.0000 0.31570  0.64350  0.08690  Biso   1.000  C
  C530     1.0000 0.27900  0.68550  0.09920  Biso   1.000  C
  C531     1.0000 0.22900  0.67920  0.12330  Biso   1.000  C
  C532     1.0000 0.21490  0.63090  0.13520  Biso   1.000  C
  O55      1.0000 0.81540  0.52060  0.13010  Biso   1.000  O
  N39      1.0000 0.32750  0.50430  0.09410  Biso   1.000  N
  C533     1.0000 0.34010  0.55330  0.08310  Biso   1.000  C
  C534     1.0000 0.39200  0.56170  0.05990  Biso   1.000  C
  C535     1.0000 0.43210  0.52100  0.04790  Biso   1.000  C
  C536     1.0000 0.42000  0.47220  0.05890  Biso   1.000  C
  C537     1.0000 0.36700  0.46380  0.08200  Biso   1.000  C
  O56      1.0000 0.68840  0.54640  0.13040  Biso   1.000  O
  N40      1.0000 0.22100  0.45280  0.11980  Biso   1.000  N
  C538     1.0000 0.16700  0.44940  0.09700  Biso   1.000  C
  C539     1.0000 0.13200  0.40300  0.09140  Biso   1.000  C
  C540     1.0000 0.15200  0.36040  0.10870  Biso   1.000  C
  C541     1.0000 0.20600  0.36380  0.13150  Biso   1.000  C
  C542     1.0000 0.24100  0.41000  0.13700  Biso   1.000  C
  C543     1.0000 0.17300  0.54200  0.08920  Biso   1.000  C
  C544     1.0000 0.13900  0.49640  0.08210  Biso   1.000  C
  C545     1.0000 0.08400  0.49500  0.05970  Biso   1.000  C
  C546     1.0000 0.06300  0.53900  0.04440  Biso   1.000  C
  C547     1.0000 0.09700  0.58500  0.05140  Biso   1.000  C
  C548     1.0000 0.15200  0.58640  0.07380  Biso   1.000  C
  Ir16     1.0000 0.25170  0.52460  0.12652  Biso   1.000  Ir
  Zn12     1.0000 0.84510  0.54096  0.17393  Biso   1.000  Zn
  C549     1.0000 0.74160  0.96470  0.30060  Biso   1.000  C
  O57      1.0000 0.80840  0.59630  0.19850  Biso   1.000  O
  O58      1.0000 0.80710  0.98710  0.29700  Biso   1.000  O
  O59      1.0000 0.67900  0.97650  0.31560  Biso   1.000  O
  O60      1.0000 0.94800  0.53280  0.16280  Biso   1.000  O
  C550     1.0000 0.81640  0.74650  0.23250  Biso   1.000  C
  C551     1.0000 0.68530  0.74880  0.23160  Biso   1.000  C
  C552     1.0000 0.81440  0.84420  0.26270  Biso   1.000  C
  C553     1.0000 0.68340  0.84080  0.26040  Biso   1.000  C
  Ir17     1.0000 0.89660  0.78900  0.24750  Biso   1.000  Ir
  Ir18     1.0000 0.60400  0.79380  0.24620  Biso   1.000  Ir
  C554     1.0000 0.52700  0.74040  0.23420  Biso   1.000  C
  C555     1.0000 0.49100  0.76360  0.20910  Biso   1.000  C
  C556     1.0000 0.43500  0.73800  0.19350  Biso   1.000  C
  C557     1.0000 0.41500  0.69000  0.20300  Biso   1.000  C
  C558     1.0000 0.45000  0.66680  0.22820  Biso   1.000  C
  C559     1.0000 0.50600  0.69200  0.24380  Biso   1.000  C
  N41      1.0000 0.56500  0.84300  0.21330  Biso   1.000  N
  C560     1.0000 0.50900  0.81570  0.19910  Biso   1.000  C
  C561     1.0000 0.47300  0.83600  0.17320  Biso   1.000  C
  C562     1.0000 0.49200  0.88300  0.16160  Biso   1.000  C
  C563     1.0000 0.54800  0.91100  0.17590  Biso   1.000  C
  C564     1.0000 0.58500  0.89000  0.20180  Biso   1.000  C
  C565     1.0000 0.39600  0.73900  0.22080  Biso   1.000  C
  C566     1.0000 0.44500  0.76050  0.19940  Biso   1.000  C
  C567     1.0000 0.45800  0.73600  0.17100  Biso   1.000  C
  C568     1.0000 0.42400  0.69100  0.16390  Biso   1.000  C
  C569     1.0000 0.37500  0.67000  0.18500  Biso   1.000  C
  C570     1.0000 0.36100  0.69400  0.21380  Biso   1.000  C
  N42      1.0000 0.47400  0.83300  0.23520  Biso   1.000  N
  C571     1.0000 0.48400  0.80780  0.20670  Biso   1.000  C
  C572     1.0000 0.52900  0.82900  0.18370  Biso   1.000  C
  C573     1.0000 0.56400  0.87500  0.18920  Biso   1.000  C
  C574     1.0000 0.55400  0.90000  0.21780  Biso   1.000  C
  C575     1.0000 0.50900  0.87900  0.24080  Biso   1.000  C
  C576     1.0000 0.92000  0.84180  0.20830  Biso   1.000  C
  C577     1.0000 0.96600  0.88100  0.21770  Biso   1.000  C
  C578     1.0000 0.98600  0.91900  0.19650  Biso   1.000  C
  C579     1.0000 0.95900  0.91800  0.16590  Biso   1.000  C
  C580     1.0000 0.91200  0.87900  0.15650  Biso   1.000  C
  C581     1.0000 0.89300  0.84100  0.17770  Biso   1.000  C
  N43      1.0000 0.97300  0.84090  0.26890  Biso   1.000  N
  C582     1.0000 0.99600  0.88000  0.25020  Biso   1.000  C
  C583     1.0000 0.03700  0.91900  0.25950  Biso   1.000  C
  C584     1.0000 0.06300  0.91800  0.29040  Biso   1.000  C
  C585     1.0000 0.04300  0.87900  0.31050  Biso   1.000  C
  C586     1.0000 0.99800  0.84000  0.29970  Biso   1.000  C
  N44      1.0000 0.98100  0.74700  0.22830  Biso   1.000  N
  C587     1.0000 0.05100  0.67260  0.24170  Biso   1.000  C
  C588     1.0000 0.09000  0.67700  0.21380  Biso   1.000  C
  C589     1.0000 0.07400  0.71700  0.19310  Biso   1.000  C
  C590     1.0000 0.02000  0.75200  0.20030  Biso   1.000  C
  C591     1.0000 0.90000  0.73940  0.28330  Biso   1.000  C
  C592     1.0000 0.95400  0.70300  0.27840  Biso   1.000  C
  C593     1.0000 0.96500  0.66500  0.30060  Biso   1.000  C
  C594     1.0000 0.92300  0.66300  0.32780  Biso   1.000  C
  C595     1.0000 0.86900  0.70000  0.33270  Biso   1.000  C
  C596     1.0000 0.85800  0.73800  0.31050  Biso   1.000  C
  C597     1.0000 0.75240  0.87740  0.69710  Biso   1.000  C
  C598     1.0000 0.75110  0.82520  0.71270  Biso   1.000  C
  C599     1.0000 0.68490  0.80200  0.71960  Biso   1.000  C
  C600     1.0000 0.74900  0.72800  0.73850  Biso   1.000  C
  C601     1.0000 0.81600  0.79970  0.71870  Biso   1.000  C
  O61      1.0000 0.81640  0.89050  0.68360  Biso   1.000  O
  C602     1.0000 0.75680  0.58650  0.78330  Biso   1.000  C
  C603     1.0000 0.68940  0.60850  0.77720  Biso   1.000  C
  C604     1.0000 0.74900  0.68110  0.75430  Biso   1.000  C
  C605     1.0000 0.82040  0.61190  0.77490  Biso   1.000  C
  C606     1.0000 0.52600  0.95670  0.69120  Biso   1.000  C
  C607     1.0000 0.43880  0.95350  0.69250  Biso   1.000  C
  C608     1.0000 0.39810  0.95880  0.66510  Biso   1.000  C
  C609     1.0000 0.28790  0.96080  0.69580  Biso   1.000  C
  C610     1.0000 0.32860  0.95550  0.72330  Biso   1.000  C
  C611     1.0000 0.40410  0.95190  0.72160  Biso   1.000  C
  O62      1.0000 0.56020  0.94850  0.71910  Biso   1.000  O
  C612     1.0000 0.97260  0.95830  0.68400  Biso   1.000  C
  C613     1.0000 0.05770  0.96450  0.68840  Biso   1.000  C
  C614     1.0000 0.10180  0.96860  0.66190  Biso   1.000  C
  C615     1.0000 0.20840  0.96150  0.69470  Biso   1.000  C
  C616     1.0000 0.16420  0.95730  0.72120  Biso   1.000  C
  C617     1.0000 0.08890  0.95880  0.71810  Biso   1.000  C
  O63      1.0000 0.95340  0.95070  0.65440  Biso   1.000  O
  O64      1.0000 0.93360  0.96140  0.71040  Biso   1.000  O
  C618     1.0000 0.74950  0.97000  0.61690  Biso   1.000  C
  C619     1.0000 0.75150  0.98010  0.58140  Biso   1.000  C
  C620     1.0000 0.81390  0.96980  0.56400  Biso   1.000  C
  C621     1.0000 0.81500  0.97910  0.53170  Biso   1.000  C
  C622     1.0000 0.75360  0.99870  0.51690  Biso   1.000  C
  C623     1.0000 0.69110  0.00890  0.53430  Biso   1.000  C
  C624     1.0000 0.69010  0.99960  0.56660  Biso   1.000  C
  Zn13     1.0000 0.84400  0.95880  0.67351  Biso   1.000  Zn
  C625     1.0000 0.24880  0.91100  0.62290  Biso   1.000  C
  C626     1.0000 0.19840  0.90470  0.59880  Biso   1.000  C
  C627     1.0000 0.18430  0.85650  0.58690  Biso   1.000  C
  C628     1.0000 0.22100  0.81450  0.59920  Biso   1.000  C
  C629     1.0000 0.27100  0.82080  0.62330  Biso   1.000  C
  C630     1.0000 0.28510  0.86910  0.63520  Biso   1.000  C
  O65      1.0000 0.68460  0.97940  0.63010  Biso   1.000  O
  N45      1.0000 0.17250  0.99570  0.59410  Biso   1.000  N
  C631     1.0000 0.15990  0.94670  0.58310  Biso   1.000  C
  C632     1.0000 0.10800  0.93830  0.55990  Biso   1.000  C
  C633     1.0000 0.06790  0.97900  0.54790  Biso   1.000  C
  C634     1.0000 0.08000  0.02780  0.55890  Biso   1.000  C
  C635     1.0000 0.13300  0.03620  0.58200  Biso   1.000  C
  O66      1.0000 0.81160  0.95360  0.63040  Biso   1.000  O
  N46      1.0000 0.27900  0.04720  0.61980  Biso   1.000  N
  C636     1.0000 0.33300  0.05060  0.59700  Biso   1.000  C
  C637     1.0000 0.36800  0.09700  0.59140  Biso   1.000  C
  C638     1.0000 0.34800  0.13960  0.60870  Biso   1.000  C
  C639     1.0000 0.29400  0.13620  0.63150  Biso   1.000  C
  C640     1.0000 0.25900  0.09000  0.63700  Biso   1.000  C
  C641     1.0000 0.32700  0.95800  0.58920  Biso   1.000  C
  C642     1.0000 0.36100  0.00360  0.58210  Biso   1.000  C
  C643     1.0000 0.41600  0.00500  0.55970  Biso   1.000  C
  C644     1.0000 0.43700  0.96100  0.54440  Biso   1.000  C
  C645     1.0000 0.40300  0.91500  0.55140  Biso   1.000  C
  C646     1.0000 0.34800  0.91360  0.57380  Biso   1.000  C
  Ir19     1.0000 0.24830  0.97540  0.62652  Biso   1.000  Ir
  Zn14     1.0000 0.65490  0.95904  0.67393  Biso   1.000  Zn
  C647     1.0000 0.75840  0.53530  0.80060  Biso   1.000  C
  O67      1.0000 0.69160  0.90370  0.69850  Biso   1.000  O
  O68      1.0000 0.69290  0.51290  0.79700  Biso   1.000  O
  O69      1.0000 0.82100  0.52350  0.81560  Biso   1.000  O
  O70      1.0000 0.55200  0.96720  0.66280  Biso   1.000  O
  C648     1.0000 0.68360  0.75350  0.73250  Biso   1.000  C
  C649     1.0000 0.81470  0.75120  0.73160  Biso   1.000  C
  C650     1.0000 0.68560  0.65580  0.76270  Biso   1.000  C
  C651     1.0000 0.81660  0.65920  0.76040  Biso   1.000  C
  Ir20     1.0000 0.60340  0.71100  0.74750  Biso   1.000  Ir
  Ir21     1.0000 0.89600  0.70620  0.74620  Biso   1.000  Ir
  C652     1.0000 0.97300  0.75960  0.73420  Biso   1.000  C
  C653     1.0000 0.00900  0.73640  0.70910  Biso   1.000  C
  C654     1.0000 0.06500  0.76200  0.69350  Biso   1.000  C
  C655     1.0000 0.08500  0.81000  0.70300  Biso   1.000  C
  C656     1.0000 0.05000  0.83320  0.72820  Biso   1.000  C
  C657     1.0000 0.99400  0.80800  0.74380  Biso   1.000  C
  N47      1.0000 0.93500  0.65700  0.71330  Biso   1.000  N
  C658     1.0000 0.99100  0.68430  0.69910  Biso   1.000  C
  C659     1.0000 0.02700  0.66400  0.67320  Biso   1.000  C
  C660     1.0000 0.00800  0.61700  0.66160  Biso   1.000  C
  C661     1.0000 0.95200  0.58900  0.67590  Biso   1.000  C
  C662     1.0000 0.91500  0.61000  0.70180  Biso   1.000  C
  C663     1.0000 0.10400  0.76100  0.72080  Biso   1.000  C
  C664     1.0000 0.05500  0.73950  0.69940  Biso   1.000  C
  C665     1.0000 0.04200  0.76400  0.67100  Biso   1.000  C
  C666     1.0000 0.07600  0.80900  0.66390  Biso   1.000  C
  C667     1.0000 0.12500  0.83000  0.68500  Biso   1.000  C
  C668     1.0000 0.13900  0.80600  0.71380  Biso   1.000  C
  N48      1.0000 0.02600  0.66700  0.73520  Biso   1.000  N
  C669     1.0000 0.01600  0.69220  0.70670  Biso   1.000  C
  C670     1.0000 0.97100  0.67100  0.68370  Biso   1.000  C
  C671     1.0000 0.93600  0.62500  0.68920  Biso   1.000  C
  C672     1.0000 0.94600  0.60000  0.71780  Biso   1.000  C
  C673     1.0000 0.99100  0.62100  0.74080  Biso   1.000  C
  C674     1.0000 0.58000  0.65820  0.70830  Biso   1.000  C
  C675     1.0000 0.53400  0.61900  0.71770  Biso   1.000  C
  C676     1.0000 0.51400  0.58100  0.69650  Biso   1.000  C
  C677     1.0000 0.54100  0.58200  0.66590  Biso   1.000  C
  C678     1.0000 0.58800  0.62100  0.65650  Biso   1.000  C
  C679     1.0000 0.60700  0.65900  0.67770  Biso   1.000  C
  N49      1.0000 0.52700  0.65910  0.76890  Biso   1.000  N
  C680     1.0000 0.50400  0.62000  0.75020  Biso   1.000  C
  C681     1.0000 0.46300  0.58100  0.75950  Biso   1.000  C
  C682     1.0000 0.43700  0.58200  0.79040  Biso   1.000  C
  C683     1.0000 0.45700  0.62100  0.81050  Biso   1.000  C
  C684     1.0000 0.50200  0.66000  0.79970  Biso   1.000  C
  N50      1.0000 0.51900  0.75300  0.72830  Biso   1.000  N
  C685     1.0000 0.44900  0.82740  0.74170  Biso   1.000  C
  C686     1.0000 0.41000  0.82300  0.71380  Biso   1.000  C
  C687     1.0000 0.42600  0.78300  0.69310  Biso   1.000  C
  C688     1.0000 0.48000  0.74800  0.70030  Biso   1.000  C
  C689     1.0000 0.60000  0.76060  0.78330  Biso   1.000  C
  C690     1.0000 0.54600  0.79700  0.77840  Biso   1.000  C
  C691     1.0000 0.53500  0.83500  0.80060  Biso   1.000  C
  C692     1.0000 0.57700  0.83700  0.82780  Biso   1.000  C
  C693     1.0000 0.63100  0.80000  0.83270  Biso   1.000  C
  C694     1.0000 0.64200  0.76200  0.81050  Biso   1.000  C
  C695     1.0000 0.25240  0.37740  0.69710  Biso   1.000  C
  C696     1.0000 0.25110  0.32520  0.71270  Biso   1.000  C
  C697     1.0000 0.18490  0.30200  0.71960  Biso   1.000  C
  C698     1.0000 0.24900  0.22800  0.73850  Biso   1.000  C
  C699     1.0000 0.31600  0.29970  0.71870  Biso   1.000  C
  O71      1.0000 0.31640  0.39050  0.68360  Biso   1.000  O
  C700     1.0000 0.25680  0.08650  0.78330  Biso   1.000  C
  C701     1.0000 0.18940  0.10850  0.77720  Biso   1.000  C
  C702     1.0000 0.24900  0.18110  0.75430  Biso   1.000  C
  C703     1.0000 0.32040  0.11190  0.77490  Biso   1.000  C
  C704     1.0000 0.02600  0.45670  0.69120  Biso   1.000  C
  C705     1.0000 0.93880  0.45350  0.69250  Biso   1.000  C
  C706     1.0000 0.89810  0.45880  0.66510  Biso   1.000  C
  C707     1.0000 0.78790  0.46080  0.69580  Biso   1.000  C
  C708     1.0000 0.82860  0.45550  0.72330  Biso   1.000  C
  C709     1.0000 0.90410  0.45190  0.72160  Biso   1.000  C
  O72      1.0000 0.06020  0.44850  0.71910  Biso   1.000  O
  C710     1.0000 0.47260  0.45830  0.68400  Biso   1.000  C
  C711     1.0000 0.55770  0.46450  0.68840  Biso   1.000  C
  C712     1.0000 0.60180  0.46860  0.66190  Biso   1.000  C
  C713     1.0000 0.70840  0.46150  0.69470  Biso   1.000  C
  C714     1.0000 0.66420  0.45730  0.72120  Biso   1.000  C
  C715     1.0000 0.58890  0.45880  0.71810  Biso   1.000  C
  O73      1.0000 0.45340  0.45070  0.65440  Biso   1.000  O
  O74      1.0000 0.43360  0.46140  0.71040  Biso   1.000  O
  C716     1.0000 0.24950  0.47000  0.61690  Biso   1.000  C
  C717     1.0000 0.25150  0.48010  0.58140  Biso   1.000  C
  C718     1.0000 0.31390  0.46980  0.56400  Biso   1.000  C
  C719     1.0000 0.31500  0.47910  0.53170  Biso   1.000  C
  C720     1.0000 0.25360  0.49870  0.51690  Biso   1.000  C
  C721     1.0000 0.19110  0.50890  0.53430  Biso   1.000  C
  C722     1.0000 0.19010  0.49960  0.56660  Biso   1.000  C
  Zn15     1.0000 0.34400  0.45880  0.67351  Biso   1.000  Zn
  C723     1.0000 0.74880  0.41100  0.62290  Biso   1.000  C
  C724     1.0000 0.69840  0.40470  0.59880  Biso   1.000  C
  C725     1.0000 0.68430  0.35650  0.58690  Biso   1.000  C
  C726     1.0000 0.72100  0.31450  0.59920  Biso   1.000  C
  C727     1.0000 0.77100  0.32080  0.62330  Biso   1.000  C
  C728     1.0000 0.78510  0.36910  0.63520  Biso   1.000  C
  O75      1.0000 0.18460  0.47940  0.63010  Biso   1.000  O
  N51      1.0000 0.67250  0.49570  0.59410  Biso   1.000  N
  C729     1.0000 0.65990  0.44670  0.58310  Biso   1.000  C
  C730     1.0000 0.60800  0.43830  0.55990  Biso   1.000  C
  C731     1.0000 0.56790  0.47900  0.54790  Biso   1.000  C
  C732     1.0000 0.58000  0.52780  0.55890  Biso   1.000  C
  C733     1.0000 0.63300  0.53620  0.58200  Biso   1.000  C
  O76      1.0000 0.31160  0.45360  0.63040  Biso   1.000  O
  N52      1.0000 0.77900  0.54720  0.61980  Biso   1.000  N
  C734     1.0000 0.83300  0.55060  0.59700  Biso   1.000  C
  C735     1.0000 0.86800  0.59700  0.59140  Biso   1.000  C
  C736     1.0000 0.84800  0.63960  0.60870  Biso   1.000  C
  C737     1.0000 0.79400  0.63620  0.63150  Biso   1.000  C
  C738     1.0000 0.75900  0.59000  0.63700  Biso   1.000  C
  C739     1.0000 0.82700  0.45800  0.58920  Biso   1.000  C
  C740     1.0000 0.86100  0.50360  0.58210  Biso   1.000  C
  C741     1.0000 0.91600  0.50500  0.55970  Biso   1.000  C
  C742     1.0000 0.93700  0.46100  0.54440  Biso   1.000  C
  C743     1.0000 0.90300  0.41500  0.55140  Biso   1.000  C
  C744     1.0000 0.84800  0.41360  0.57380  Biso   1.000  C
  Ir22     1.0000 0.74830  0.47540  0.62652  Biso   1.000  Ir
  Zn16     1.0000 0.15490  0.45904  0.67393  Biso   1.000  Zn
  C745     1.0000 0.25840  0.03530  0.80060  Biso   1.000  C
  O77      1.0000 0.19160  0.40370  0.69850  Biso   1.000  O
  O78      1.0000 0.19290  0.01290  0.79700  Biso   1.000  O
  O79      1.0000 0.32100  0.02350  0.81560  Biso   1.000  O
  O80      1.0000 0.05200  0.46720  0.66280  Biso   1.000  O
  C746     1.0000 0.18360  0.25350  0.73250  Biso   1.000  C
  C747     1.0000 0.31470  0.25120  0.73160  Biso   1.000  C
  C748     1.0000 0.18560  0.15580  0.76270  Biso   1.000  C
  C749     1.0000 0.31660  0.15920  0.76040  Biso   1.000  C
  Ir23     1.0000 0.10340  0.21100  0.74750  Biso   1.000  Ir
  Ir24     1.0000 0.39600  0.20620  0.74620  Biso   1.000  Ir
  C750     1.0000 0.47300  0.25960  0.73420  Biso   1.000  C
  C751     1.0000 0.50900  0.23640  0.70910  Biso   1.000  C
  C752     1.0000 0.56500  0.26200  0.69350  Biso   1.000  C
  C753     1.0000 0.58500  0.31000  0.70300  Biso   1.000  C
  C754     1.0000 0.55000  0.33320  0.72820  Biso   1.000  C
  C755     1.0000 0.49400  0.30800  0.74380  Biso   1.000  C
  N53      1.0000 0.43500  0.15700  0.71330  Biso   1.000  N
  C756     1.0000 0.49100  0.18430  0.69910  Biso   1.000  C
  C757     1.0000 0.52700  0.16400  0.67320  Biso   1.000  C
  C758     1.0000 0.50800  0.11700  0.66160  Biso   1.000  C
  C759     1.0000 0.45200  0.08900  0.67590  Biso   1.000  C
  C760     1.0000 0.41500  0.11000  0.70180  Biso   1.000  C
  C761     1.0000 0.60400  0.26100  0.72080  Biso   1.000  C
  C762     1.0000 0.55500  0.23950  0.69940  Biso   1.000  C
  C763     1.0000 0.54200  0.26400  0.67100  Biso   1.000  C
  C764     1.0000 0.57600  0.30900  0.66390  Biso   1.000  C
  C765     1.0000 0.62500  0.33000  0.68500  Biso   1.000  C
  C766     1.0000 0.63900  0.30600  0.71380  Biso   1.000  C
  N54      1.0000 0.52600  0.16700  0.73520  Biso   1.000  N
  C767     1.0000 0.51600  0.19220  0.70670  Biso   1.000  C
  C768     1.0000 0.47100  0.17100  0.68370  Biso   1.000  C
  C769     1.0000 0.43600  0.12500  0.68920  Biso   1.000  C
  C770     1.0000 0.44600  0.10000  0.71780  Biso   1.000  C
  C771     1.0000 0.49100  0.12100  0.74080  Biso   1.000  C
  C772     1.0000 0.08000  0.15820  0.70830  Biso   1.000  C
  C773     1.0000 0.03400  0.11900  0.71770  Biso   1.000  C
  C774     1.0000 0.01400  0.08100  0.69650  Biso   1.000  C
  C775     1.0000 0.04100  0.08200  0.66590  Biso   1.000  C
  C776     1.0000 0.08800  0.12100  0.65650  Biso   1.000  C
  C777     1.0000 0.10700  0.15900  0.67770  Biso   1.000  C
  N55      1.0000 0.02700  0.15910  0.76890  Biso   1.000  N
  C778     1.0000 0.00400  0.12000  0.75020  Biso   1.000  C
  C779     1.0000 0.96300  0.08100  0.75950  Biso   1.000  C
  C780     1.0000 0.93700  0.08200  0.79040  Biso   1.000  C
  C781     1.0000 0.95700  0.12100  0.81050  Biso   1.000  C
  C782     1.0000 0.00200  0.16000  0.79970  Biso   1.000  C
  N56      1.0000 0.01900  0.25300  0.72830  Biso   1.000  N
  C783     1.0000 0.94900  0.32740  0.74170  Biso   1.000  C
  C784     1.0000 0.91000  0.32300  0.71380  Biso   1.000  C
  C785     1.0000 0.92600  0.28300  0.69310  Biso   1.000  C
  C786     1.0000 0.98000  0.24800  0.70030  Biso   1.000  C
  C787     1.0000 0.10000  0.26060  0.78330  Biso   1.000  C
  C788     1.0000 0.04600  0.29700  0.77840  Biso   1.000  C
  C789     1.0000 0.03500  0.33500  0.80060  Biso   1.000  C
  C790     1.0000 0.07700  0.33700  0.82780  Biso   1.000  C
  C791     1.0000 0.13100  0.30000  0.83270  Biso   1.000  C
  C792     1.0000 0.14200  0.26200  0.81050  Biso   1.000  C
  C793     1.0000 0.50000  0.20740  0.25000  Biso   1.000  C
  C794     1.0000 0.00000  0.70740  0.25000  Biso   1.000  C
  C795     1.0000 0.50000  0.79260  0.75000  Biso   1.000  C
  C796     1.0000 0.00000  0.29260  0.75000  Biso   1.000  C
