data_image0
_cell_length_a       34.0239
_cell_length_b       34.0239
_cell_length_c       34.0239
_cell_angle_alpha    90
_cell_angle_beta     90
_cell_angle_gamma    90

_symmetry_space_group_name_H-M    "P 1"
_symmetry_int_tables_number       1

loop_
  _symmetry_equiv_pos_as_xyz
  'x, y, z'

loop_
  _atom_site_label
  _atom_site_occupancy
  _atom_site_fract_x
  _atom_site_fract_y
  _atom_site_fract_z
  _atom_site_thermal_displace_type
  _atom_site_B_iso_or_equiv
  _atom_site_type_symbol
  C1       1.0000 0.28290  0.76400  0.41880  Biso   1.000  C
  N1       1.0000 0.28300  0.76420  0.46020  Biso   1.000  N
  N2       1.0000 0.30030  0.85790  0.54240  Biso   1.000  N
  C2       1.0000 0.28290  0.26400  0.91880  Biso   1.000  C
  N3       1.0000 0.28300  0.26420  0.96020  Biso   1.000  N
  N4       1.0000 0.30030  0.35790  0.04240  Biso   1.000  N
  C3       1.0000 0.78290  0.76400  0.91880  Biso   1.000  C
  N5       1.0000 0.78300  0.76420  0.96020  Biso   1.000  N
  N6       1.0000 0.80030  0.85790  0.04240  Biso   1.000  N
  C4       1.0000 0.78290  0.26400  0.41880  Biso   1.000  C
  N7       1.0000 0.78300  0.26420  0.46020  Biso   1.000  N
  N8       1.0000 0.80030  0.35790  0.54240  Biso   1.000  N
  C5       1.0000 0.71710  0.23600  0.41880  Biso   1.000  C
  N9       1.0000 0.71700  0.23580  0.46020  Biso   1.000  N
  N10      1.0000 0.69970  0.14210  0.54240  Biso   1.000  N
  C6       1.0000 0.71710  0.73600  0.91880  Biso   1.000  C
  N11      1.0000 0.71700  0.73580  0.96020  Biso   1.000  N
  N12      1.0000 0.69970  0.64210  0.04240  Biso   1.000  N
  C7       1.0000 0.21710  0.23600  0.91880  Biso   1.000  C
  N13      1.0000 0.21700  0.23580  0.96020  Biso   1.000  N
  N14      1.0000 0.19970  0.14210  0.04240  Biso   1.000  N
  C8       1.0000 0.21710  0.73600  0.41880  Biso   1.000  C
  N15      1.0000 0.21700  0.73580  0.46020  Biso   1.000  N
  N16      1.0000 0.19970  0.64210  0.54240  Biso   1.000  N
  C9       1.0000 0.71710  0.76400  0.58120  Biso   1.000  C
  N17      1.0000 0.71700  0.76420  0.53980  Biso   1.000  N
  N18      1.0000 0.69970  0.85790  0.45760  Biso   1.000  N
  C10      1.0000 0.71710  0.26400  0.08120  Biso   1.000  C
  N19      1.0000 0.71700  0.26420  0.03980  Biso   1.000  N
  N20      1.0000 0.69970  0.35790  0.95760  Biso   1.000  N
  C11      1.0000 0.21710  0.76400  0.08120  Biso   1.000  C
  N21      1.0000 0.21700  0.76420  0.03980  Biso   1.000  N
  N22      1.0000 0.19970  0.85790  0.95760  Biso   1.000  N
  C12      1.0000 0.21710  0.26400  0.58120  Biso   1.000  C
  N23      1.0000 0.21700  0.26420  0.53980  Biso   1.000  N
  N24      1.0000 0.19970  0.35790  0.45760  Biso   1.000  N
  C13      1.0000 0.28290  0.23600  0.58120  Biso   1.000  C
  N25      1.0000 0.28300  0.23580  0.53980  Biso   1.000  N
  N26      1.0000 0.30030  0.14210  0.45760  Biso   1.000  N
  C14      1.0000 0.28290  0.73600  0.08120  Biso   1.000  C
  N27      1.0000 0.28300  0.73580  0.03980  Biso   1.000  N
  N28      1.0000 0.30030  0.64210  0.95760  Biso   1.000  N
  C15      1.0000 0.78290  0.23600  0.08120  Biso   1.000  C
  N29      1.0000 0.78300  0.23580  0.03980  Biso   1.000  N
  N30      1.0000 0.80030  0.14210  0.95760  Biso   1.000  N
  C16      1.0000 0.78290  0.73600  0.58120  Biso   1.000  C
  N31      1.0000 0.78300  0.73580  0.53980  Biso   1.000  N
  N32      1.0000 0.80030  0.64210  0.45760  Biso   1.000  N
  C17      1.0000 0.41880  0.28290  0.76400  Biso   1.000  C
  N33      1.0000 0.46020  0.28300  0.76420  Biso   1.000  N
  N34      1.0000 0.54240  0.30030  0.85790  Biso   1.000  N
  C18      1.0000 0.41880  0.78290  0.26400  Biso   1.000  C
  N35      1.0000 0.46020  0.78300  0.26420  Biso   1.000  N
  N36      1.0000 0.54240  0.80030  0.35790  Biso   1.000  N
  C19      1.0000 0.91880  0.28290  0.26400  Biso   1.000  C
  N37      1.0000 0.96020  0.28300  0.26420  Biso   1.000  N
  N38      1.0000 0.04240  0.30030  0.35790  Biso   1.000  N
  C20      1.0000 0.91880  0.78290  0.76400  Biso   1.000  C
  N39      1.0000 0.96020  0.78300  0.76420  Biso   1.000  N
  N40      1.0000 0.04240  0.80030  0.85790  Biso   1.000  N
  C21      1.0000 0.41880  0.71710  0.23600  Biso   1.000  C
  N41      1.0000 0.46020  0.71700  0.23580  Biso   1.000  N
  N42      1.0000 0.54240  0.69970  0.14210  Biso   1.000  N
  C22      1.0000 0.41880  0.21710  0.73600  Biso   1.000  C
  N43      1.0000 0.46020  0.21700  0.73580  Biso   1.000  N
  N44      1.0000 0.54240  0.19970  0.64210  Biso   1.000  N
  C23      1.0000 0.91880  0.71710  0.73600  Biso   1.000  C
  N45      1.0000 0.96020  0.71700  0.73580  Biso   1.000  N
  N46      1.0000 0.04240  0.69970  0.64210  Biso   1.000  N
  C24      1.0000 0.91880  0.21710  0.23600  Biso   1.000  C
  N47      1.0000 0.96020  0.21700  0.23580  Biso   1.000  N
  N48      1.0000 0.04240  0.19970  0.14210  Biso   1.000  N
  C25      1.0000 0.58120  0.71710  0.76400  Biso   1.000  C
  N49      1.0000 0.53980  0.71700  0.76420  Biso   1.000  N
  N50      1.0000 0.45760  0.69970  0.85790  Biso   1.000  N
  C26      1.0000 0.58120  0.21710  0.26400  Biso   1.000  C
  N51      1.0000 0.53980  0.21700  0.26420  Biso   1.000  N
  N52      1.0000 0.45760  0.19970  0.35790  Biso   1.000  N
  C27      1.0000 0.08120  0.71710  0.26400  Biso   1.000  C
  N53      1.0000 0.03980  0.71700  0.26420  Biso   1.000  N
  N54      1.0000 0.95760  0.69970  0.35790  Biso   1.000  N
  C28      1.0000 0.08120  0.21710  0.76400  Biso   1.000  C
  N55      1.0000 0.03980  0.21700  0.76420  Biso   1.000  N
  N56      1.0000 0.95760  0.19970  0.85790  Biso   1.000  N
  C29      1.0000 0.58120  0.28290  0.23600  Biso   1.000  C
  N57      1.0000 0.53980  0.28300  0.23580  Biso   1.000  N
  N58      1.0000 0.45760  0.30030  0.14210  Biso   1.000  N
  C30      1.0000 0.58120  0.78290  0.73600  Biso   1.000  C
  N59      1.0000 0.53980  0.78300  0.73580  Biso   1.000  N
  N60      1.0000 0.45760  0.80030  0.64210  Biso   1.000  N
  C31      1.0000 0.08120  0.28290  0.73600  Biso   1.000  C
  N61      1.0000 0.03980  0.28300  0.73580  Biso   1.000  N
  N62      1.0000 0.95760  0.30030  0.64210  Biso   1.000  N
  C32      1.0000 0.08120  0.78290  0.23600  Biso   1.000  C
  N63      1.0000 0.03980  0.78300  0.23580  Biso   1.000  N
  N64      1.0000 0.95760  0.80030  0.14210  Biso   1.000  N
  C33      1.0000 0.76400  0.41880  0.28290  Biso   1.000  C
  N65      1.0000 0.76420  0.46020  0.28300  Biso   1.000  N
  N66      1.0000 0.85790  0.54240  0.30030  Biso   1.000  N
  C34      1.0000 0.76400  0.91880  0.78290  Biso   1.000  C
  N67      1.0000 0.76420  0.96020  0.78300  Biso   1.000  N
  N68      1.0000 0.85790  0.04240  0.80030  Biso   1.000  N
  C35      1.0000 0.26400  0.41880  0.78290  Biso   1.000  C
  N69      1.0000 0.26420  0.46020  0.78300  Biso   1.000  N
  N70      1.0000 0.35790  0.54240  0.80030  Biso   1.000  N
  C36      1.0000 0.26400  0.91880  0.28290  Biso   1.000  C
  N71      1.0000 0.26420  0.96020  0.28300  Biso   1.000  N
  N72      1.0000 0.35790  0.04240  0.30030  Biso   1.000  N
  C37      1.0000 0.23600  0.41880  0.71710  Biso   1.000  C
  N73      1.0000 0.23580  0.46020  0.71700  Biso   1.000  N
  N74      1.0000 0.14210  0.54240  0.69970  Biso   1.000  N
  C38      1.0000 0.23600  0.91880  0.21710  Biso   1.000  C
  N75      1.0000 0.23580  0.96020  0.21700  Biso   1.000  N
  N76      1.0000 0.14210  0.04240  0.19970  Biso   1.000  N
  C39      1.0000 0.73600  0.41880  0.21710  Biso   1.000  C
  N77      1.0000 0.73580  0.46020  0.21700  Biso   1.000  N
  N78      1.0000 0.64210  0.54240  0.19970  Biso   1.000  N
  C40      1.0000 0.73600  0.91880  0.71710  Biso   1.000  C
  N79      1.0000 0.73580  0.96020  0.71700  Biso   1.000  N
  N80      1.0000 0.64210  0.04240  0.69970  Biso   1.000  N
  C41      1.0000 0.76400  0.58120  0.71710  Biso   1.000  C
  N81      1.0000 0.76420  0.53980  0.71700  Biso   1.000  N
  N82      1.0000 0.85790  0.45760  0.69970  Biso   1.000  N
  C42      1.0000 0.76400  0.08120  0.21710  Biso   1.000  C
  N83      1.0000 0.76420  0.03980  0.21700  Biso   1.000  N
  N84      1.0000 0.85790  0.95760  0.19970  Biso   1.000  N
  C43      1.0000 0.26400  0.58120  0.21710  Biso   1.000  C
  N85      1.0000 0.26420  0.53980  0.21700  Biso   1.000  N
  N86      1.0000 0.35790  0.45760  0.19970  Biso   1.000  N
  C44      1.0000 0.26400  0.08120  0.71710  Biso   1.000  C
  N87      1.0000 0.26420  0.03980  0.71700  Biso   1.000  N
  N88      1.0000 0.35790  0.95760  0.69970  Biso   1.000  N
  C45      1.0000 0.23600  0.58120  0.28290  Biso   1.000  C
  N89      1.0000 0.23580  0.53980  0.28300  Biso   1.000  N
  N90      1.0000 0.14210  0.45760  0.30030  Biso   1.000  N
  C46      1.0000 0.23600  0.08120  0.78290  Biso   1.000  C
  N91      1.0000 0.23580  0.03980  0.78300  Biso   1.000  N
  N92      1.0000 0.14210  0.95760  0.80030  Biso   1.000  N
  C47      1.0000 0.73600  0.58120  0.78290  Biso   1.000  C
  N93      1.0000 0.73580  0.53980  0.78300  Biso   1.000  N
  N94      1.0000 0.64210  0.45760  0.80030  Biso   1.000  N
  C48      1.0000 0.73600  0.08120  0.28290  Biso   1.000  C
  N95      1.0000 0.73580  0.03980  0.28300  Biso   1.000  N
  N96      1.0000 0.64210  0.95760  0.30030  Biso   1.000  N
  C49      1.0000 0.76400  0.28290  0.58120  Biso   1.000  C
  N97      1.0000 0.76420  0.28300  0.53980  Biso   1.000  N
  N98      1.0000 0.85790  0.30030  0.45760  Biso   1.000  N
  C50      1.0000 0.76400  0.78290  0.08120  Biso   1.000  C
  N99      1.0000 0.76420  0.78300  0.03980  Biso   1.000  N
  N100     1.0000 0.85790  0.80030  0.95760  Biso   1.000  N
  C51      1.0000 0.26400  0.28290  0.08120  Biso   1.000  C
  N101     1.0000 0.26420  0.28300  0.03980  Biso   1.000  N
  N102     1.0000 0.35790  0.30030  0.95760  Biso   1.000  N
  C52      1.0000 0.26400  0.78290  0.58120  Biso   1.000  C
  N103     1.0000 0.26420  0.78300  0.53980  Biso   1.000  N
  N104     1.0000 0.35790  0.80030  0.45760  Biso   1.000  N
  C53      1.0000 0.23600  0.71710  0.58120  Biso   1.000  C
  N105     1.0000 0.23580  0.71700  0.53980  Biso   1.000  N
  N106     1.0000 0.14210  0.69970  0.45760  Biso   1.000  N
  C54      1.0000 0.23600  0.21710  0.08120  Biso   1.000  C
  N107     1.0000 0.23580  0.21700  0.03980  Biso   1.000  N
  N108     1.0000 0.14210  0.19970  0.95760  Biso   1.000  N
  C55      1.0000 0.73600  0.71710  0.08120  Biso   1.000  C
  N109     1.0000 0.73580  0.71700  0.03980  Biso   1.000  N
  N110     1.0000 0.64210  0.69970  0.95760  Biso   1.000  N
  C56      1.0000 0.73600  0.21710  0.58120  Biso   1.000  C
  N111     1.0000 0.73580  0.21700  0.53980  Biso   1.000  N
  N112     1.0000 0.64210  0.19970  0.45760  Biso   1.000  N
  C57      1.0000 0.76400  0.71710  0.41880  Biso   1.000  C
  N113     1.0000 0.76420  0.71700  0.46020  Biso   1.000  N
  N114     1.0000 0.85790  0.69970  0.54240  Biso   1.000  N
  C58      1.0000 0.76400  0.21710  0.91880  Biso   1.000  C
  N115     1.0000 0.76420  0.21700  0.96020  Biso   1.000  N
  N116     1.0000 0.85790  0.19970  0.04240  Biso   1.000  N
  C59      1.0000 0.26400  0.71710  0.91880  Biso   1.000  C
  N117     1.0000 0.26420  0.71700  0.96020  Biso   1.000  N
  N118     1.0000 0.35790  0.69970  0.04240  Biso   1.000  N
  C60      1.0000 0.26400  0.21710  0.41880  Biso   1.000  C
  N119     1.0000 0.26420  0.21700  0.46020  Biso   1.000  N
  N120     1.0000 0.35790  0.19970  0.54240  Biso   1.000  N
  C61      1.0000 0.23600  0.28290  0.41880  Biso   1.000  C
  N121     1.0000 0.23580  0.28300  0.46020  Biso   1.000  N
  N122     1.0000 0.14210  0.30030  0.54240  Biso   1.000  N
  C62      1.0000 0.23600  0.78290  0.91880  Biso   1.000  C
  N123     1.0000 0.23580  0.78300  0.96020  Biso   1.000  N
  N124     1.0000 0.14210  0.80030  0.04240  Biso   1.000  N
  C63      1.0000 0.73600  0.28290  0.91880  Biso   1.000  C
  N125     1.0000 0.73580  0.28300  0.96020  Biso   1.000  N
  N126     1.0000 0.64210  0.30030  0.04240  Biso   1.000  N
  C64      1.0000 0.73600  0.78290  0.41880  Biso   1.000  C
  N127     1.0000 0.73580  0.78300  0.46020  Biso   1.000  N
  N128     1.0000 0.64210  0.80030  0.54240  Biso   1.000  N
  C65      1.0000 0.28290  0.41880  0.23600  Biso   1.000  C
  N129     1.0000 0.28300  0.46020  0.23580  Biso   1.000  N
  N130     1.0000 0.30030  0.54240  0.14210  Biso   1.000  N
  C66      1.0000 0.28290  0.91880  0.73600  Biso   1.000  C
  N131     1.0000 0.28300  0.96020  0.73580  Biso   1.000  N
  N132     1.0000 0.30030  0.04240  0.64210  Biso   1.000  N
  C67      1.0000 0.78290  0.41880  0.73600  Biso   1.000  C
  N133     1.0000 0.78300  0.46020  0.73580  Biso   1.000  N
  N134     1.0000 0.80030  0.54240  0.64210  Biso   1.000  N
  C68      1.0000 0.78290  0.91880  0.23600  Biso   1.000  C
  N135     1.0000 0.78300  0.96020  0.23580  Biso   1.000  N
  N136     1.0000 0.80030  0.04240  0.14210  Biso   1.000  N
  C69      1.0000 0.71710  0.41880  0.76400  Biso   1.000  C
  N137     1.0000 0.71700  0.46020  0.76420  Biso   1.000  N
  N138     1.0000 0.69970  0.54240  0.85790  Biso   1.000  N
  C70      1.0000 0.71710  0.91880  0.26400  Biso   1.000  C
  N139     1.0000 0.71700  0.96020  0.26420  Biso   1.000  N
  N140     1.0000 0.69970  0.04240  0.35790  Biso   1.000  N
  C71      1.0000 0.21710  0.41880  0.26400  Biso   1.000  C
  N141     1.0000 0.21700  0.46020  0.26420  Biso   1.000  N
  N142     1.0000 0.19970  0.54240  0.35790  Biso   1.000  N
  C72      1.0000 0.21710  0.91880  0.76400  Biso   1.000  C
  N143     1.0000 0.21700  0.96020  0.76420  Biso   1.000  N
  N144     1.0000 0.19970  0.04240  0.85790  Biso   1.000  N
  C73      1.0000 0.71710  0.58120  0.23600  Biso   1.000  C
  N145     1.0000 0.71700  0.53980  0.23580  Biso   1.000  N
  N146     1.0000 0.69970  0.45760  0.14210  Biso   1.000  N
  C74      1.0000 0.71710  0.08120  0.73600  Biso   1.000  C
  N147     1.0000 0.71700  0.03980  0.73580  Biso   1.000  N
  N148     1.0000 0.69970  0.95760  0.64210  Biso   1.000  N
  C75      1.0000 0.21710  0.58120  0.73600  Biso   1.000  C
  N149     1.0000 0.21700  0.53980  0.73580  Biso   1.000  N
  N150     1.0000 0.19970  0.45760  0.64210  Biso   1.000  N
  C76      1.0000 0.21710  0.08120  0.23600  Biso   1.000  C
  N151     1.0000 0.21700  0.03980  0.23580  Biso   1.000  N
  N152     1.0000 0.19970  0.95760  0.14210  Biso   1.000  N
  C77      1.0000 0.28290  0.58120  0.76400  Biso   1.000  C
  N153     1.0000 0.28300  0.53980  0.76420  Biso   1.000  N
  N154     1.0000 0.30030  0.45760  0.85790  Biso   1.000  N
  C78      1.0000 0.28290  0.08120  0.26400  Biso   1.000  C
  N155     1.0000 0.28300  0.03980  0.26420  Biso   1.000  N
  N156     1.0000 0.30030  0.95760  0.35790  Biso   1.000  N
  C79      1.0000 0.78290  0.58120  0.26400  Biso   1.000  C
  N157     1.0000 0.78300  0.53980  0.26420  Biso   1.000  N
  N158     1.0000 0.80030  0.45760  0.35790  Biso   1.000  N
  C80      1.0000 0.78290  0.08120  0.76400  Biso   1.000  C
  N159     1.0000 0.78300  0.03980  0.76420  Biso   1.000  N
  N160     1.0000 0.80030  0.95760  0.85790  Biso   1.000  N
  C81      1.0000 0.41880  0.76400  0.71710  Biso   1.000  C
  N161     1.0000 0.46020  0.76420  0.71700  Biso   1.000  N
  N162     1.0000 0.54240  0.85790  0.69970  Biso   1.000  N
  C82      1.0000 0.41880  0.26400  0.21710  Biso   1.000  C
  N163     1.0000 0.46020  0.26420  0.21700  Biso   1.000  N
  N164     1.0000 0.54240  0.35790  0.19970  Biso   1.000  N
  C83      1.0000 0.91880  0.76400  0.21710  Biso   1.000  C
  N165     1.0000 0.96020  0.76420  0.21700  Biso   1.000  N
  N166     1.0000 0.04240  0.85790  0.19970  Biso   1.000  N
  C84      1.0000 0.91880  0.26400  0.71710  Biso   1.000  C
  N167     1.0000 0.96020  0.26420  0.71700  Biso   1.000  N
  N168     1.0000 0.04240  0.35790  0.69970  Biso   1.000  N
  C85      1.0000 0.41880  0.23600  0.28290  Biso   1.000  C
  N169     1.0000 0.46020  0.23580  0.28300  Biso   1.000  N
  N170     1.0000 0.54240  0.14210  0.30030  Biso   1.000  N
  C86      1.0000 0.41880  0.73600  0.78290  Biso   1.000  C
  N171     1.0000 0.46020  0.73580  0.78300  Biso   1.000  N
  N172     1.0000 0.54240  0.64210  0.80030  Biso   1.000  N
  C87      1.0000 0.91880  0.23600  0.78290  Biso   1.000  C
  N173     1.0000 0.96020  0.23580  0.78300  Biso   1.000  N
  N174     1.0000 0.04240  0.14210  0.80030  Biso   1.000  N
  C88      1.0000 0.91880  0.73600  0.28290  Biso   1.000  C
  N175     1.0000 0.96020  0.73580  0.28300  Biso   1.000  N
  N176     1.0000 0.04240  0.64210  0.30030  Biso   1.000  N
  C89      1.0000 0.58120  0.76400  0.28290  Biso   1.000  C
  N177     1.0000 0.53980  0.76420  0.28300  Biso   1.000  N
  N178     1.0000 0.45760  0.85790  0.30030  Biso   1.000  N
  C90      1.0000 0.58120  0.26400  0.78290  Biso   1.000  C
  N179     1.0000 0.53980  0.26420  0.78300  Biso   1.000  N
  N180     1.0000 0.45760  0.35790  0.80030  Biso   1.000  N
  C91      1.0000 0.08120  0.76400  0.78290  Biso   1.000  C
  N181     1.0000 0.03980  0.76420  0.78300  Biso   1.000  N
  N182     1.0000 0.95760  0.85790  0.80030  Biso   1.000  N
  C92      1.0000 0.08120  0.26400  0.28290  Biso   1.000  C
  N183     1.0000 0.03980  0.26420  0.28300  Biso   1.000  N
  N184     1.0000 0.95760  0.35790  0.30030  Biso   1.000  N
  C93      1.0000 0.58120  0.23600  0.71710  Biso   1.000  C
  N185     1.0000 0.53980  0.23580  0.71700  Biso   1.000  N
  N186     1.0000 0.45760  0.14210  0.69970  Biso   1.000  N
  C94      1.0000 0.58120  0.73600  0.21710  Biso   1.000  C
  N187     1.0000 0.53980  0.73580  0.21700  Biso   1.000  N
  N188     1.0000 0.45760  0.64210  0.19970  Biso   1.000  N
  C95      1.0000 0.08120  0.23600  0.21710  Biso   1.000  C
  N189     1.0000 0.03980  0.23580  0.21700  Biso   1.000  N
  N190     1.0000 0.95760  0.14210  0.19970  Biso   1.000  N
  C96      1.0000 0.08120  0.73600  0.71710  Biso   1.000  C
  N191     1.0000 0.03980  0.73580  0.71700  Biso   1.000  N
  N192     1.0000 0.95760  0.64210  0.69970  Biso   1.000  N
  C97      1.0000 0.71710  0.23600  0.58120  Biso   1.000  C
  N193     1.0000 0.71700  0.23580  0.53980  Biso   1.000  N
  N194     1.0000 0.69970  0.14210  0.45760  Biso   1.000  N
  C98      1.0000 0.71710  0.73600  0.08120  Biso   1.000  C
  N195     1.0000 0.71700  0.73580  0.03980  Biso   1.000  N
  N196     1.0000 0.69970  0.64210  0.95760  Biso   1.000  N
  C99      1.0000 0.21710  0.23600  0.08120  Biso   1.000  C
  N197     1.0000 0.21700  0.23580  0.03980  Biso   1.000  N
  N198     1.0000 0.19970  0.14210  0.95760  Biso   1.000  N
  C100     1.0000 0.21710  0.73600  0.58120  Biso   1.000  C
  N199     1.0000 0.21700  0.73580  0.53980  Biso   1.000  N
  N200     1.0000 0.19970  0.64210  0.45760  Biso   1.000  N
  C101     1.0000 0.28290  0.76400  0.58120  Biso   1.000  C
  N201     1.0000 0.28300  0.76420  0.53980  Biso   1.000  N
  N202     1.0000 0.30030  0.85790  0.45760  Biso   1.000  N
  C102     1.0000 0.28290  0.26400  0.08120  Biso   1.000  C
  N203     1.0000 0.28300  0.26420  0.03980  Biso   1.000  N
  N204     1.0000 0.30030  0.35790  0.95760  Biso   1.000  N
  C103     1.0000 0.78290  0.76400  0.08120  Biso   1.000  C
  N205     1.0000 0.78300  0.76420  0.03980  Biso   1.000  N
  N206     1.0000 0.80030  0.85790  0.95760  Biso   1.000  N
  C104     1.0000 0.78290  0.26400  0.58120  Biso   1.000  C
  N207     1.0000 0.78300  0.26420  0.53980  Biso   1.000  N
  N208     1.0000 0.80030  0.35790  0.45760  Biso   1.000  N
  C105     1.0000 0.28290  0.23600  0.41880  Biso   1.000  C
  N209     1.0000 0.28300  0.23580  0.46020  Biso   1.000  N
  N210     1.0000 0.30030  0.14210  0.54240  Biso   1.000  N
  C106     1.0000 0.28290  0.73600  0.91880  Biso   1.000  C
  N211     1.0000 0.28300  0.73580  0.96020  Biso   1.000  N
  N212     1.0000 0.30030  0.64210  0.04240  Biso   1.000  N
  C107     1.0000 0.78290  0.23600  0.91880  Biso   1.000  C
  N213     1.0000 0.78300  0.23580  0.96020  Biso   1.000  N
  N214     1.0000 0.80030  0.14210  0.04240  Biso   1.000  N
  C108     1.0000 0.78290  0.73600  0.41880  Biso   1.000  C
  N215     1.0000 0.78300  0.73580  0.46020  Biso   1.000  N
  N216     1.0000 0.80030  0.64210  0.54240  Biso   1.000  N
  C109     1.0000 0.71710  0.76400  0.41880  Biso   1.000  C
  N217     1.0000 0.71700  0.76420  0.46020  Biso   1.000  N
  N218     1.0000 0.69970  0.85790  0.54240  Biso   1.000  N
  C110     1.0000 0.71710  0.26400  0.91880  Biso   1.000  C
  N219     1.0000 0.71700  0.26420  0.96020  Biso   1.000  N
  N220     1.0000 0.69970  0.35790  0.04240  Biso   1.000  N
  C111     1.0000 0.21710  0.76400  0.91880  Biso   1.000  C
  N221     1.0000 0.21700  0.76420  0.96020  Biso   1.000  N
  N222     1.0000 0.19970  0.85790  0.04240  Biso   1.000  N
  C112     1.0000 0.21710  0.26400  0.41880  Biso   1.000  C
  N223     1.0000 0.21700  0.26420  0.46020  Biso   1.000  N
  N224     1.0000 0.19970  0.35790  0.54240  Biso   1.000  N
  C113     1.0000 0.58120  0.71710  0.23600  Biso   1.000  C
  N225     1.0000 0.53980  0.71700  0.23580  Biso   1.000  N
  N226     1.0000 0.45760  0.69970  0.14210  Biso   1.000  N
  C114     1.0000 0.58120  0.21710  0.73600  Biso   1.000  C
  N227     1.0000 0.53980  0.21700  0.73580  Biso   1.000  N
  N228     1.0000 0.45760  0.19970  0.64210  Biso   1.000  N
  C115     1.0000 0.08120  0.71710  0.73600  Biso   1.000  C
  N229     1.0000 0.03980  0.71700  0.73580  Biso   1.000  N
  N230     1.0000 0.95760  0.69970  0.64210  Biso   1.000  N
  C116     1.0000 0.08120  0.21710  0.23600  Biso   1.000  C
  N231     1.0000 0.03980  0.21700  0.23580  Biso   1.000  N
  N232     1.0000 0.95760  0.19970  0.14210  Biso   1.000  N
  C117     1.0000 0.58120  0.28290  0.76400  Biso   1.000  C
  N233     1.0000 0.53980  0.28300  0.76420  Biso   1.000  N
  N234     1.0000 0.45760  0.30030  0.85790  Biso   1.000  N
  C118     1.0000 0.58120  0.78290  0.26400  Biso   1.000  C
  N235     1.0000 0.53980  0.78300  0.26420  Biso   1.000  N
  N236     1.0000 0.45760  0.80030  0.35790  Biso   1.000  N
  C119     1.0000 0.08120  0.28290  0.26400  Biso   1.000  C
  N237     1.0000 0.03980  0.28300  0.26420  Biso   1.000  N
  N238     1.0000 0.95760  0.30030  0.35790  Biso   1.000  N
  C120     1.0000 0.08120  0.78290  0.76400  Biso   1.000  C
  N239     1.0000 0.03980  0.78300  0.76420  Biso   1.000  N
  N240     1.0000 0.95760  0.80030  0.85790  Biso   1.000  N
  C121     1.0000 0.41880  0.28290  0.23600  Biso   1.000  C
  N241     1.0000 0.46020  0.28300  0.23580  Biso   1.000  N
  N242     1.0000 0.54240  0.30030  0.14210  Biso   1.000  N
  C122     1.0000 0.41880  0.78290  0.73600  Biso   1.000  C
  N243     1.0000 0.46020  0.78300  0.73580  Biso   1.000  N
  N244     1.0000 0.54240  0.80030  0.64210  Biso   1.000  N
  C123     1.0000 0.91880  0.28290  0.73600  Biso   1.000  C
  N245     1.0000 0.96020  0.28300  0.73580  Biso   1.000  N
  N246     1.0000 0.04240  0.30030  0.64210  Biso   1.000  N
  C124     1.0000 0.91880  0.78290  0.23600  Biso   1.000  C
  N247     1.0000 0.96020  0.78300  0.23580  Biso   1.000  N
  N248     1.0000 0.04240  0.80030  0.14210  Biso   1.000  N
  C125     1.0000 0.41880  0.71710  0.76400  Biso   1.000  C
  N249     1.0000 0.46020  0.71700  0.76420  Biso   1.000  N
  N250     1.0000 0.54240  0.69970  0.85790  Biso   1.000  N
  C126     1.0000 0.41880  0.21710  0.26400  Biso   1.000  C
  N251     1.0000 0.46020  0.21700  0.26420  Biso   1.000  N
  N252     1.0000 0.54240  0.19970  0.35790  Biso   1.000  N
  C127     1.0000 0.91880  0.71710  0.26400  Biso   1.000  C
  N253     1.0000 0.96020  0.71700  0.26420  Biso   1.000  N
  N254     1.0000 0.04240  0.69970  0.35790  Biso   1.000  N
  C128     1.0000 0.91880  0.21710  0.76400  Biso   1.000  C
  N255     1.0000 0.96020  0.21700  0.76420  Biso   1.000  N
  N256     1.0000 0.04240  0.19970  0.85790  Biso   1.000  N
  C129     1.0000 0.23600  0.58120  0.71710  Biso   1.000  C
  N257     1.0000 0.23580  0.53980  0.71700  Biso   1.000  N
  N258     1.0000 0.14210  0.45760  0.69970  Biso   1.000  N
  C130     1.0000 0.23600  0.08120  0.21710  Biso   1.000  C
  N259     1.0000 0.23580  0.03980  0.21700  Biso   1.000  N
  N260     1.0000 0.14210  0.95760  0.19970  Biso   1.000  N
  C131     1.0000 0.73600  0.58120  0.21710  Biso   1.000  C
  N261     1.0000 0.73580  0.53980  0.21700  Biso   1.000  N
  N262     1.0000 0.64210  0.45760  0.19970  Biso   1.000  N
  C132     1.0000 0.73600  0.08120  0.71710  Biso   1.000  C
  N263     1.0000 0.73580  0.03980  0.71700  Biso   1.000  N
  N264     1.0000 0.64210  0.95760  0.69970  Biso   1.000  N
  C133     1.0000 0.76400  0.58120  0.28290  Biso   1.000  C
  N265     1.0000 0.76420  0.53980  0.28300  Biso   1.000  N
  N266     1.0000 0.85790  0.45760  0.30030  Biso   1.000  N
  C134     1.0000 0.76400  0.08120  0.78290  Biso   1.000  C
  N267     1.0000 0.76420  0.03980  0.78300  Biso   1.000  N
  N268     1.0000 0.85790  0.95760  0.80030  Biso   1.000  N
  C135     1.0000 0.26400  0.58120  0.78290  Biso   1.000  C
  N269     1.0000 0.26420  0.53980  0.78300  Biso   1.000  N
  N270     1.0000 0.35790  0.45760  0.80030  Biso   1.000  N
  C136     1.0000 0.26400  0.08120  0.28290  Biso   1.000  C
  N271     1.0000 0.26420  0.03980  0.28300  Biso   1.000  N
  N272     1.0000 0.35790  0.95760  0.30030  Biso   1.000  N
  C137     1.0000 0.23600  0.41880  0.28290  Biso   1.000  C
  N273     1.0000 0.23580  0.46020  0.28300  Biso   1.000  N
  N274     1.0000 0.14210  0.54240  0.30030  Biso   1.000  N
  C138     1.0000 0.23600  0.91880  0.78290  Biso   1.000  C
  N275     1.0000 0.23580  0.96020  0.78300  Biso   1.000  N
  N276     1.0000 0.14210  0.04240  0.80030  Biso   1.000  N
  C139     1.0000 0.73600  0.41880  0.78290  Biso   1.000  C
  N277     1.0000 0.73580  0.46020  0.78300  Biso   1.000  N
  N278     1.0000 0.64210  0.54240  0.80030  Biso   1.000  N
  C140     1.0000 0.73600  0.91880  0.28290  Biso   1.000  C
  N279     1.0000 0.73580  0.96020  0.28300  Biso   1.000  N
  N280     1.0000 0.64210  0.04240  0.30030  Biso   1.000  N
  C141     1.0000 0.76400  0.41880  0.71710  Biso   1.000  C
  N281     1.0000 0.76420  0.46020  0.71700  Biso   1.000  N
  N282     1.0000 0.85790  0.54240  0.69970  Biso   1.000  N
  C142     1.0000 0.76400  0.91880  0.21710  Biso   1.000  C
  N283     1.0000 0.76420  0.96020  0.21700  Biso   1.000  N
  N284     1.0000 0.85790  0.04240  0.19970  Biso   1.000  N
  C143     1.0000 0.26400  0.41880  0.21710  Biso   1.000  C
  N285     1.0000 0.26420  0.46020  0.21700  Biso   1.000  N
  N286     1.0000 0.35790  0.54240  0.19970  Biso   1.000  N
  C144     1.0000 0.26400  0.91880  0.71710  Biso   1.000  C
  N287     1.0000 0.26420  0.96020  0.71700  Biso   1.000  N
  N288     1.0000 0.35790  0.04240  0.69970  Biso   1.000  N
  C145     1.0000 0.23600  0.71710  0.41880  Biso   1.000  C
  N289     1.0000 0.23580  0.71700  0.46020  Biso   1.000  N
  N290     1.0000 0.14210  0.69970  0.54240  Biso   1.000  N
  C146     1.0000 0.23600  0.21710  0.91880  Biso   1.000  C
  N291     1.0000 0.23580  0.21700  0.96020  Biso   1.000  N
  N292     1.0000 0.14210  0.19970  0.04240  Biso   1.000  N
  C147     1.0000 0.73600  0.71710  0.91880  Biso   1.000  C
  N293     1.0000 0.73580  0.71700  0.96020  Biso   1.000  N
  N294     1.0000 0.64210  0.69970  0.04240  Biso   1.000  N
  C148     1.0000 0.73600  0.21710  0.41880  Biso   1.000  C
  N295     1.0000 0.73580  0.21700  0.46020  Biso   1.000  N
  N296     1.0000 0.64210  0.19970  0.54240  Biso   1.000  N
  C149     1.0000 0.76400  0.28290  0.41880  Biso   1.000  C
  N297     1.0000 0.76420  0.28300  0.46020  Biso   1.000  N
  N298     1.0000 0.85790  0.30030  0.54240  Biso   1.000  N
  C150     1.0000 0.76400  0.78290  0.91880  Biso   1.000  C
  N299     1.0000 0.76420  0.78300  0.96020  Biso   1.000  N
  N300     1.0000 0.85790  0.80030  0.04240  Biso   1.000  N
  C151     1.0000 0.26400  0.28290  0.91880  Biso   1.000  C
  N301     1.0000 0.26420  0.28300  0.96020  Biso   1.000  N
  N302     1.0000 0.35790  0.30030  0.04240  Biso   1.000  N
  C152     1.0000 0.26400  0.78290  0.41880  Biso   1.000  C
  N303     1.0000 0.26420  0.78300  0.46020  Biso   1.000  N
  N304     1.0000 0.35790  0.80030  0.54240  Biso   1.000  N
  C153     1.0000 0.23600  0.28290  0.58120  Biso   1.000  C
  N305     1.0000 0.23580  0.28300  0.53980  Biso   1.000  N
  N306     1.0000 0.14210  0.30030  0.45760  Biso   1.000  N
  C154     1.0000 0.23600  0.78290  0.08120  Biso   1.000  C
  N307     1.0000 0.23580  0.78300  0.03980  Biso   1.000  N
  N308     1.0000 0.14210  0.80030  0.95760  Biso   1.000  N
  C155     1.0000 0.73600  0.28290  0.08120  Biso   1.000  C
  N309     1.0000 0.73580  0.28300  0.03980  Biso   1.000  N
  N310     1.0000 0.64210  0.30030  0.95760  Biso   1.000  N
  C156     1.0000 0.73600  0.78290  0.58120  Biso   1.000  C
  N311     1.0000 0.73580  0.78300  0.53980  Biso   1.000  N
  N312     1.0000 0.64210  0.80030  0.45760  Biso   1.000  N
  C157     1.0000 0.76400  0.71710  0.58120  Biso   1.000  C
  N313     1.0000 0.76420  0.71700  0.53980  Biso   1.000  N
  N314     1.0000 0.85790  0.69970  0.45760  Biso   1.000  N
  C158     1.0000 0.76400  0.21710  0.08120  Biso   1.000  C
  N315     1.0000 0.76420  0.21700  0.03980  Biso   1.000  N
  N316     1.0000 0.85790  0.19970  0.95760  Biso   1.000  N
  C159     1.0000 0.26400  0.71710  0.08120  Biso   1.000  C
  N317     1.0000 0.26420  0.71700  0.03980  Biso   1.000  N
  N318     1.0000 0.35790  0.69970  0.95760  Biso   1.000  N
  C160     1.0000 0.26400  0.21710  0.58120  Biso   1.000  C
  N319     1.0000 0.26420  0.21700  0.53980  Biso   1.000  N
  N320     1.0000 0.35790  0.19970  0.45760  Biso   1.000  N
  C161     1.0000 0.71710  0.58120  0.76400  Biso   1.000  C
  N321     1.0000 0.71700  0.53980  0.76420  Biso   1.000  N
  N322     1.0000 0.69970  0.45760  0.85790  Biso   1.000  N
  C162     1.0000 0.71710  0.08120  0.26400  Biso   1.000  C
  N323     1.0000 0.71700  0.03980  0.26420  Biso   1.000  N
  N324     1.0000 0.69970  0.95760  0.35790  Biso   1.000  N
  C163     1.0000 0.21710  0.58120  0.26400  Biso   1.000  C
  N325     1.0000 0.21700  0.53980  0.26420  Biso   1.000  N
  N326     1.0000 0.19970  0.45760  0.35790  Biso   1.000  N
  C164     1.0000 0.21710  0.08120  0.76400  Biso   1.000  C
  N327     1.0000 0.21700  0.03980  0.76420  Biso   1.000  N
  N328     1.0000 0.19970  0.95760  0.85790  Biso   1.000  N
  C165     1.0000 0.28290  0.58120  0.23600  Biso   1.000  C
  N329     1.0000 0.28300  0.53980  0.23580  Biso   1.000  N
  N330     1.0000 0.30030  0.45760  0.14210  Biso   1.000  N
  C166     1.0000 0.28290  0.08120  0.73600  Biso   1.000  C
  N331     1.0000 0.28300  0.03980  0.73580  Biso   1.000  N
  N332     1.0000 0.30030  0.95760  0.64210  Biso   1.000  N
  C167     1.0000 0.78290  0.58120  0.73600  Biso   1.000  C
  N333     1.0000 0.78300  0.53980  0.73580  Biso   1.000  N
  N334     1.0000 0.80030  0.45760  0.64210  Biso   1.000  N
  C168     1.0000 0.78290  0.08120  0.23600  Biso   1.000  C
  N335     1.0000 0.78300  0.03980  0.23580  Biso   1.000  N
  N336     1.0000 0.80030  0.95760  0.14210  Biso   1.000  N
  C169     1.0000 0.28290  0.41880  0.76400  Biso   1.000  C
  N337     1.0000 0.28300  0.46020  0.76420  Biso   1.000  N
  N338     1.0000 0.30030  0.54240  0.85790  Biso   1.000  N
  C170     1.0000 0.28290  0.91880  0.26400  Biso   1.000  C
  N339     1.0000 0.28300  0.96020  0.26420  Biso   1.000  N
  N340     1.0000 0.30030  0.04240  0.35790  Biso   1.000  N
  C171     1.0000 0.78290  0.41880  0.26400  Biso   1.000  C
  N341     1.0000 0.78300  0.46020  0.26420  Biso   1.000  N
  N342     1.0000 0.80030  0.54240  0.35790  Biso   1.000  N
  C172     1.0000 0.78290  0.91880  0.76400  Biso   1.000  C
  N343     1.0000 0.78300  0.96020  0.76420  Biso   1.000  N
  N344     1.0000 0.80030  0.04240  0.85790  Biso   1.000  N
  C173     1.0000 0.71710  0.41880  0.23600  Biso   1.000  C
  N345     1.0000 0.71700  0.46020  0.23580  Biso   1.000  N
  N346     1.0000 0.69970  0.54240  0.14210  Biso   1.000  N
  C174     1.0000 0.71710  0.91880  0.73600  Biso   1.000  C
  N347     1.0000 0.71700  0.96020  0.73580  Biso   1.000  N
  N348     1.0000 0.69970  0.04240  0.64210  Biso   1.000  N
  C175     1.0000 0.21710  0.41880  0.73600  Biso   1.000  C
  N349     1.0000 0.21700  0.46020  0.73580  Biso   1.000  N
  N350     1.0000 0.19970  0.54240  0.64210  Biso   1.000  N
  C176     1.0000 0.21710  0.91880  0.23600  Biso   1.000  C
  N351     1.0000 0.21700  0.96020  0.23580  Biso   1.000  N
  N352     1.0000 0.19970  0.04240  0.14210  Biso   1.000  N
  C177     1.0000 0.58120  0.23600  0.28290  Biso   1.000  C
  N353     1.0000 0.53980  0.23580  0.28300  Biso   1.000  N
  N354     1.0000 0.45760  0.14210  0.30030  Biso   1.000  N
  C178     1.0000 0.58120  0.73600  0.78290  Biso   1.000  C
  N355     1.0000 0.53980  0.73580  0.78300  Biso   1.000  N
  N356     1.0000 0.45760  0.64210  0.80030  Biso   1.000  N
  C179     1.0000 0.08120  0.23600  0.78290  Biso   1.000  C
  N357     1.0000 0.03980  0.23580  0.78300  Biso   1.000  N
  N358     1.0000 0.95760  0.14210  0.80030  Biso   1.000  N
  C180     1.0000 0.08120  0.73600  0.28290  Biso   1.000  C
  N359     1.0000 0.03980  0.73580  0.28300  Biso   1.000  N
  N360     1.0000 0.95760  0.64210  0.30030  Biso   1.000  N
  C181     1.0000 0.58120  0.76400  0.71710  Biso   1.000  C
  N361     1.0000 0.53980  0.76420  0.71700  Biso   1.000  N
  N362     1.0000 0.45760  0.85790  0.69970  Biso   1.000  N
  C182     1.0000 0.58120  0.26400  0.21710  Biso   1.000  C
  N363     1.0000 0.53980  0.26420  0.21700  Biso   1.000  N
  N364     1.0000 0.45760  0.35790  0.19970  Biso   1.000  N
  C183     1.0000 0.08120  0.76400  0.21710  Biso   1.000  C
  N365     1.0000 0.03980  0.76420  0.21700  Biso   1.000  N
  N366     1.0000 0.95760  0.85790  0.19970  Biso   1.000  N
  C184     1.0000 0.08120  0.26400  0.71710  Biso   1.000  C
  N367     1.0000 0.03980  0.26420  0.71700  Biso   1.000  N
  N368     1.0000 0.95760  0.35790  0.69970  Biso   1.000  N
  C185     1.0000 0.41880  0.23600  0.71710  Biso   1.000  C
  N369     1.0000 0.46020  0.23580  0.71700  Biso   1.000  N
  N370     1.0000 0.54240  0.14210  0.69970  Biso   1.000  N
  C186     1.0000 0.41880  0.73600  0.21710  Biso   1.000  C
  N371     1.0000 0.46020  0.73580  0.21700  Biso   1.000  N
  N372     1.0000 0.54240  0.64210  0.19970  Biso   1.000  N
  C187     1.0000 0.91880  0.23600  0.21710  Biso   1.000  C
  N373     1.0000 0.96020  0.23580  0.21700  Biso   1.000  N
  N374     1.0000 0.04240  0.14210  0.19970  Biso   1.000  N
  C188     1.0000 0.91880  0.73600  0.71710  Biso   1.000  C
  N375     1.0000 0.96020  0.73580  0.71700  Biso   1.000  N
  N376     1.0000 0.04240  0.64210  0.69970  Biso   1.000  N
  C189     1.0000 0.41880  0.76400  0.28290  Biso   1.000  C
  N377     1.0000 0.46020  0.76420  0.28300  Biso   1.000  N
  N378     1.0000 0.54240  0.85790  0.30030  Biso   1.000  N
  C190     1.0000 0.41880  0.26400  0.78290  Biso   1.000  C
  N379     1.0000 0.46020  0.26420  0.78300  Biso   1.000  N
  N380     1.0000 0.54240  0.35790  0.80030  Biso   1.000  N
  C191     1.0000 0.91880  0.76400  0.78290  Biso   1.000  C
  N381     1.0000 0.96020  0.76420  0.78300  Biso   1.000  N
  N382     1.0000 0.04240  0.85790  0.80030  Biso   1.000  N
  C192     1.0000 0.91880  0.26400  0.28290  Biso   1.000  C
  N383     1.0000 0.96020  0.26420  0.28300  Biso   1.000  N
  N384     1.0000 0.04240  0.35790  0.30030  Biso   1.000  N
  C193     1.0000 0.25000  0.75000  0.35680  Biso   1.000  C
  C194     1.0000 0.25000  0.75000  0.40100  Biso   1.000  C
  C195     1.0000 0.25000  0.75000  0.47840  Biso   1.000  C
  C196     1.0000 0.25000  0.25000  0.85680  Biso   1.000  C
  C197     1.0000 0.25000  0.25000  0.90100  Biso   1.000  C
  C198     1.0000 0.25000  0.25000  0.97840  Biso   1.000  C
  C199     1.0000 0.75000  0.25000  0.35680  Biso   1.000  C
  C200     1.0000 0.75000  0.25000  0.40100  Biso   1.000  C
  C201     1.0000 0.75000  0.25000  0.47840  Biso   1.000  C
  C202     1.0000 0.75000  0.75000  0.85680  Biso   1.000  C
  C203     1.0000 0.75000  0.75000  0.90100  Biso   1.000  C
  C204     1.0000 0.75000  0.75000  0.97840  Biso   1.000  C
  C205     1.0000 0.75000  0.75000  0.64320  Biso   1.000  C
  C206     1.0000 0.75000  0.75000  0.59900  Biso   1.000  C
  C207     1.0000 0.75000  0.75000  0.52160  Biso   1.000  C
  C208     1.0000 0.75000  0.25000  0.14320  Biso   1.000  C
  C209     1.0000 0.75000  0.25000  0.09900  Biso   1.000  C
  C210     1.0000 0.75000  0.25000  0.02160  Biso   1.000  C
  C211     1.0000 0.25000  0.25000  0.64320  Biso   1.000  C
  C212     1.0000 0.25000  0.25000  0.59900  Biso   1.000  C
  C213     1.0000 0.25000  0.25000  0.52160  Biso   1.000  C
  C214     1.0000 0.25000  0.75000  0.14320  Biso   1.000  C
  C215     1.0000 0.25000  0.75000  0.09900  Biso   1.000  C
  C216     1.0000 0.25000  0.75000  0.02160  Biso   1.000  C
  C217     1.0000 0.35680  0.25000  0.75000  Biso   1.000  C
  C218     1.0000 0.40100  0.25000  0.75000  Biso   1.000  C
  C219     1.0000 0.47840  0.25000  0.75000  Biso   1.000  C
  C220     1.0000 0.85680  0.25000  0.25000  Biso   1.000  C
  C221     1.0000 0.90100  0.25000  0.25000  Biso   1.000  C
  C222     1.0000 0.97840  0.25000  0.25000  Biso   1.000  C
  C223     1.0000 0.35680  0.75000  0.25000  Biso   1.000  C
  C224     1.0000 0.40100  0.75000  0.25000  Biso   1.000  C
  C225     1.0000 0.47840  0.75000  0.25000  Biso   1.000  C
  C226     1.0000 0.85680  0.75000  0.75000  Biso   1.000  C
  C227     1.0000 0.90100  0.75000  0.75000  Biso   1.000  C
  C228     1.0000 0.97840  0.75000  0.75000  Biso   1.000  C
  C229     1.0000 0.64320  0.75000  0.75000  Biso   1.000  C
  C230     1.0000 0.59900  0.75000  0.75000  Biso   1.000  C
  C231     1.0000 0.52160  0.75000  0.75000  Biso   1.000  C
  C232     1.0000 0.14320  0.75000  0.25000  Biso   1.000  C
  C233     1.0000 0.09900  0.75000  0.25000  Biso   1.000  C
  C234     1.0000 0.02160  0.75000  0.25000  Biso   1.000  C
  C235     1.0000 0.64320  0.25000  0.25000  Biso   1.000  C
  C236     1.0000 0.59900  0.25000  0.25000  Biso   1.000  C
  C237     1.0000 0.52160  0.25000  0.25000  Biso   1.000  C
  C238     1.0000 0.14320  0.25000  0.75000  Biso   1.000  C
  C239     1.0000 0.09900  0.25000  0.75000  Biso   1.000  C
  C240     1.0000 0.02160  0.25000  0.75000  Biso   1.000  C
  C241     1.0000 0.75000  0.35680  0.25000  Biso   1.000  C
  C242     1.0000 0.75000  0.40100  0.25000  Biso   1.000  C
  C243     1.0000 0.75000  0.47840  0.25000  Biso   1.000  C
  C244     1.0000 0.75000  0.85680  0.75000  Biso   1.000  C
  C245     1.0000 0.75000  0.90100  0.75000  Biso   1.000  C
  C246     1.0000 0.75000  0.97840  0.75000  Biso   1.000  C
  C247     1.0000 0.25000  0.35680  0.75000  Biso   1.000  C
  C248     1.0000 0.25000  0.40100  0.75000  Biso   1.000  C
  C249     1.0000 0.25000  0.47840  0.75000  Biso   1.000  C
  C250     1.0000 0.25000  0.85680  0.25000  Biso   1.000  C
  C251     1.0000 0.25000  0.90100  0.25000  Biso   1.000  C
  C252     1.0000 0.25000  0.97840  0.25000  Biso   1.000  C
  C253     1.0000 0.75000  0.64320  0.75000  Biso   1.000  C
  C254     1.0000 0.75000  0.59900  0.75000  Biso   1.000  C
  C255     1.0000 0.75000  0.52160  0.75000  Biso   1.000  C
  C256     1.0000 0.75000  0.14320  0.25000  Biso   1.000  C
  C257     1.0000 0.75000  0.09900  0.25000  Biso   1.000  C
  C258     1.0000 0.75000  0.02160  0.25000  Biso   1.000  C
  C259     1.0000 0.25000  0.64320  0.25000  Biso   1.000  C
  C260     1.0000 0.25000  0.59900  0.25000  Biso   1.000  C
  C261     1.0000 0.25000  0.52160  0.25000  Biso   1.000  C
  C262     1.0000 0.25000  0.14320  0.75000  Biso   1.000  C
  C263     1.0000 0.25000  0.09900  0.75000  Biso   1.000  C
  C264     1.0000 0.25000  0.02160  0.75000  Biso   1.000  C
  C265     1.0000 0.75000  0.25000  0.64320  Biso   1.000  C
  C266     1.0000 0.75000  0.25000  0.59900  Biso   1.000  C
  C267     1.0000 0.75000  0.25000  0.52160  Biso   1.000  C
  C268     1.0000 0.75000  0.75000  0.14320  Biso   1.000  C
  C269     1.0000 0.75000  0.75000  0.09900  Biso   1.000  C
  C270     1.0000 0.75000  0.75000  0.02160  Biso   1.000  C
  C271     1.0000 0.25000  0.75000  0.64320  Biso   1.000  C
  C272     1.0000 0.25000  0.75000  0.59900  Biso   1.000  C
  C273     1.0000 0.25000  0.75000  0.52160  Biso   1.000  C
  C274     1.0000 0.25000  0.25000  0.14320  Biso   1.000  C
  C275     1.0000 0.25000  0.25000  0.09900  Biso   1.000  C
  C276     1.0000 0.25000  0.25000  0.02160  Biso   1.000  C
  C277     1.0000 0.75000  0.75000  0.35680  Biso   1.000  C
  C278     1.0000 0.75000  0.75000  0.40100  Biso   1.000  C
  C279     1.0000 0.75000  0.75000  0.47840  Biso   1.000  C
  C280     1.0000 0.75000  0.25000  0.85680  Biso   1.000  C
  C281     1.0000 0.75000  0.25000  0.90100  Biso   1.000  C
  C282     1.0000 0.75000  0.25000  0.97840  Biso   1.000  C
  C283     1.0000 0.25000  0.25000  0.35680  Biso   1.000  C
  C284     1.0000 0.25000  0.25000  0.40100  Biso   1.000  C
  C285     1.0000 0.25000  0.25000  0.47840  Biso   1.000  C
  C286     1.0000 0.25000  0.75000  0.85680  Biso   1.000  C
  C287     1.0000 0.25000  0.75000  0.90100  Biso   1.000  C
  C288     1.0000 0.25000  0.75000  0.97840  Biso   1.000  C
  C289     1.0000 0.25000  0.35680  0.25000  Biso   1.000  C
  C290     1.0000 0.25000  0.40100  0.25000  Biso   1.000  C
  C291     1.0000 0.25000  0.47840  0.25000  Biso   1.000  C
  C292     1.0000 0.25000  0.85680  0.75000  Biso   1.000  C
  C293     1.0000 0.25000  0.90100  0.75000  Biso   1.000  C
  C294     1.0000 0.25000  0.97840  0.75000  Biso   1.000  C
  C295     1.0000 0.75000  0.35680  0.75000  Biso   1.000  C
  C296     1.0000 0.75000  0.40100  0.75000  Biso   1.000  C
  C297     1.0000 0.75000  0.47840  0.75000  Biso   1.000  C
  C298     1.0000 0.75000  0.85680  0.25000  Biso   1.000  C
  C299     1.0000 0.75000  0.90100  0.25000  Biso   1.000  C
  C300     1.0000 0.75000  0.97840  0.25000  Biso   1.000  C
  C301     1.0000 0.75000  0.64320  0.25000  Biso   1.000  C
  C302     1.0000 0.75000  0.59900  0.25000  Biso   1.000  C
  C303     1.0000 0.75000  0.52160  0.25000  Biso   1.000  C
  C304     1.0000 0.75000  0.14320  0.75000  Biso   1.000  C
  C305     1.0000 0.75000  0.09900  0.75000  Biso   1.000  C
  C306     1.0000 0.75000  0.02160  0.75000  Biso   1.000  C
  C307     1.0000 0.25000  0.64320  0.75000  Biso   1.000  C
  C308     1.0000 0.25000  0.59900  0.75000  Biso   1.000  C
  C309     1.0000 0.25000  0.52160  0.75000  Biso   1.000  C
  C310     1.0000 0.25000  0.14320  0.25000  Biso   1.000  C
  C311     1.0000 0.25000  0.09900  0.25000  Biso   1.000  C
  C312     1.0000 0.25000  0.02160  0.25000  Biso   1.000  C
  C313     1.0000 0.35680  0.75000  0.75000  Biso   1.000  C
  C314     1.0000 0.40100  0.75000  0.75000  Biso   1.000  C
  C315     1.0000 0.47840  0.75000  0.75000  Biso   1.000  C
  C316     1.0000 0.85680  0.75000  0.25000  Biso   1.000  C
  C317     1.0000 0.90100  0.75000  0.25000  Biso   1.000  C
  C318     1.0000 0.97840  0.75000  0.25000  Biso   1.000  C
  C319     1.0000 0.35680  0.25000  0.25000  Biso   1.000  C
  C320     1.0000 0.40100  0.25000  0.25000  Biso   1.000  C
  C321     1.0000 0.47840  0.25000  0.25000  Biso   1.000  C
  C322     1.0000 0.85680  0.25000  0.75000  Biso   1.000  C
  C323     1.0000 0.90100  0.25000  0.75000  Biso   1.000  C
  C324     1.0000 0.97840  0.25000  0.75000  Biso   1.000  C
  C325     1.0000 0.64320  0.75000  0.25000  Biso   1.000  C
  C326     1.0000 0.59900  0.75000  0.25000  Biso   1.000  C
  C327     1.0000 0.52160  0.75000  0.25000  Biso   1.000  C
  C328     1.0000 0.14320  0.75000  0.75000  Biso   1.000  C
  C329     1.0000 0.09900  0.75000  0.75000  Biso   1.000  C
  C330     1.0000 0.02160  0.75000  0.75000  Biso   1.000  C
  C331     1.0000 0.64320  0.25000  0.75000  Biso   1.000  C
  C332     1.0000 0.59900  0.25000  0.75000  Biso   1.000  C
  C333     1.0000 0.52160  0.25000  0.75000  Biso   1.000  C
  C334     1.0000 0.14320  0.25000  0.25000  Biso   1.000  C
  C335     1.0000 0.09900  0.25000  0.25000  Biso   1.000  C
  C336     1.0000 0.02160  0.25000  0.25000  Biso   1.000  C
  O1       1.0000 0.22170  0.72170  0.33320  Biso   1.000  O
  O2       1.0000 0.22170  0.22170  0.83320  Biso   1.000  O
  O3       1.0000 0.72170  0.72170  0.83320  Biso   1.000  O
  O4       1.0000 0.77830  0.27830  0.33320  Biso   1.000  O
  O5       1.0000 0.77830  0.77830  0.83320  Biso   1.000  O
  O6       1.0000 0.77830  0.72170  0.66680  Biso   1.000  O
  O7       1.0000 0.77830  0.22170  0.16680  Biso   1.000  O
  O8       1.0000 0.22170  0.27830  0.66680  Biso   1.000  O
  O9       1.0000 0.22170  0.77830  0.16680  Biso   1.000  O
  O10      1.0000 0.72170  0.77830  0.66680  Biso   1.000  O
  O11      1.0000 0.33320  0.22170  0.72170  Biso   1.000  O
  O12      1.0000 0.83320  0.22170  0.22170  Biso   1.000  O
  O13      1.0000 0.83320  0.72170  0.72170  Biso   1.000  O
  O14      1.0000 0.33320  0.77830  0.27830  Biso   1.000  O
  O15      1.0000 0.83320  0.77830  0.77830  Biso   1.000  O
  O16      1.0000 0.66680  0.77830  0.72170  Biso   1.000  O
  O17      1.0000 0.16680  0.77830  0.22170  Biso   1.000  O
  O18      1.0000 0.66680  0.22170  0.27830  Biso   1.000  O
  O19      1.0000 0.66680  0.72170  0.77830  Biso   1.000  O
  O20      1.0000 0.16680  0.22170  0.77830  Biso   1.000  O
  O21      1.0000 0.72170  0.33320  0.22170  Biso   1.000  O
  O22      1.0000 0.72170  0.83320  0.72170  Biso   1.000  O
  O23      1.0000 0.27830  0.33320  0.77830  Biso   1.000  O
  O24      1.0000 0.27830  0.83320  0.27830  Biso   1.000  O
  O25      1.0000 0.77830  0.83320  0.77830  Biso   1.000  O
  O26      1.0000 0.72170  0.66680  0.77830  Biso   1.000  O
  O27      1.0000 0.72170  0.16680  0.27830  Biso   1.000  O
  O28      1.0000 0.27830  0.66680  0.22170  Biso   1.000  O
  O29      1.0000 0.27830  0.16680  0.72170  Biso   1.000  O
  O30      1.0000 0.77830  0.66680  0.72170  Biso   1.000  O
  O31      1.0000 0.72170  0.22170  0.66680  Biso   1.000  O
  O32      1.0000 0.72170  0.72170  0.16680  Biso   1.000  O
  O33      1.0000 0.27830  0.77830  0.66680  Biso   1.000  O
  O34      1.0000 0.27830  0.27830  0.16680  Biso   1.000  O
  O35      1.0000 0.77830  0.77830  0.16680  Biso   1.000  O
  O36      1.0000 0.72170  0.77830  0.33320  Biso   1.000  O
  O37      1.0000 0.72170  0.27830  0.83320  Biso   1.000  O
  O38      1.0000 0.27830  0.22170  0.33320  Biso   1.000  O
  O39      1.0000 0.27830  0.72170  0.83320  Biso   1.000  O
  O40      1.0000 0.77830  0.72170  0.33320  Biso   1.000  O
  O41      1.0000 0.22170  0.33320  0.27830  Biso   1.000  O
  O42      1.0000 0.22170  0.83320  0.77830  Biso   1.000  O
  O43      1.0000 0.72170  0.33320  0.77830  Biso   1.000  O
  O44      1.0000 0.77830  0.33320  0.72170  Biso   1.000  O
  O45      1.0000 0.77830  0.83320  0.22170  Biso   1.000  O
  O46      1.0000 0.77830  0.66680  0.27830  Biso   1.000  O
  O47      1.0000 0.77830  0.16680  0.77830  Biso   1.000  O
  O48      1.0000 0.22170  0.66680  0.72170  Biso   1.000  O
  O49      1.0000 0.22170  0.16680  0.22170  Biso   1.000  O
  O50      1.0000 0.72170  0.16680  0.72170  Biso   1.000  O
  O51      1.0000 0.33320  0.72170  0.77830  Biso   1.000  O
  O52      1.0000 0.83320  0.72170  0.27830  Biso   1.000  O
  O53      1.0000 0.33320  0.27830  0.22170  Biso   1.000  O
  O54      1.0000 0.33320  0.77830  0.72170  Biso   1.000  O
  O55      1.0000 0.83320  0.27830  0.72170  Biso   1.000  O
  O56      1.0000 0.66680  0.72170  0.22170  Biso   1.000  O
  O57      1.0000 0.16680  0.72170  0.72170  Biso   1.000  O
  O58      1.0000 0.66680  0.27830  0.77830  Biso   1.000  O
  O59      1.0000 0.16680  0.27830  0.27830  Biso   1.000  O
  O60      1.0000 0.16680  0.77830  0.77830  Biso   1.000  O
  O61      1.0000 0.77830  0.27830  0.66680  Biso   1.000  O
  O62      1.0000 0.22170  0.72170  0.66680  Biso   1.000  O
  O63      1.0000 0.22170  0.22170  0.16680  Biso   1.000  O
  O64      1.0000 0.22170  0.27830  0.33320  Biso   1.000  O
  O65      1.0000 0.22170  0.77830  0.83320  Biso   1.000  O
  O66      1.0000 0.77830  0.22170  0.83320  Biso   1.000  O
  O67      1.0000 0.66680  0.77830  0.27830  Biso   1.000  O
  O68      1.0000 0.66680  0.22170  0.72170  Biso   1.000  O
  O69      1.0000 0.16680  0.22170  0.22170  Biso   1.000  O
  O70      1.0000 0.33320  0.22170  0.27830  Biso   1.000  O
  O71      1.0000 0.83320  0.22170  0.77830  Biso   1.000  O
  O72      1.0000 0.83320  0.77830  0.22170  Biso   1.000  O
  O73      1.0000 0.27830  0.66680  0.77830  Biso   1.000  O
  O74      1.0000 0.27830  0.16680  0.27830  Biso   1.000  O
  O75      1.0000 0.72170  0.66680  0.22170  Biso   1.000  O
  O76      1.0000 0.27830  0.33320  0.22170  Biso   1.000  O
  O77      1.0000 0.27830  0.83320  0.72170  Biso   1.000  O
  O78      1.0000 0.72170  0.83320  0.27830  Biso   1.000  O
  O79      1.0000 0.27830  0.77830  0.33320  Biso   1.000  O
  O80      1.0000 0.27830  0.27830  0.83320  Biso   1.000  O
  O81      1.0000 0.72170  0.22170  0.33320  Biso   1.000  O
  O82      1.0000 0.27830  0.22170  0.66680  Biso   1.000  O
  O83      1.0000 0.27830  0.72170  0.16680  Biso   1.000  O
  O84      1.0000 0.72170  0.27830  0.16680  Biso   1.000  O
  O85      1.0000 0.77830  0.16680  0.22170  Biso   1.000  O
  O86      1.0000 0.22170  0.66680  0.27830  Biso   1.000  O
  O87      1.0000 0.22170  0.16680  0.77830  Biso   1.000  O
  O88      1.0000 0.22170  0.33320  0.72170  Biso   1.000  O
  O89      1.0000 0.22170  0.83320  0.22170  Biso   1.000  O
  O90      1.0000 0.77830  0.33320  0.27830  Biso   1.000  O
  O91      1.0000 0.66680  0.27830  0.22170  Biso   1.000  O
  O92      1.0000 0.16680  0.27830  0.72170  Biso   1.000  O
  O93      1.0000 0.16680  0.72170  0.27830  Biso   1.000  O
  O94      1.0000 0.33320  0.27830  0.77830  Biso   1.000  O
  O95      1.0000 0.83320  0.27830  0.27830  Biso   1.000  O
  O96      1.0000 0.33320  0.72170  0.22170  Biso   1.000  O
  Zn1      1.0000 0.21710  0.71710  0.28290  Biso   1.000  Zn
  Zn2      1.0000 0.21710  0.21710  0.78290  Biso   1.000  Zn
  Zn3      1.0000 0.78290  0.28290  0.28290  Biso   1.000  Zn
  Zn4      1.0000 0.78290  0.78290  0.78290  Biso   1.000  Zn
  Zn5      1.0000 0.78290  0.71710  0.71710  Biso   1.000  Zn
  Zn6      1.0000 0.78290  0.21710  0.21710  Biso   1.000  Zn
  Zn7      1.0000 0.21710  0.28290  0.71710  Biso   1.000  Zn
  Zn8      1.0000 0.21710  0.78290  0.21710  Biso   1.000  Zn
  Zn9      1.0000 0.28290  0.21710  0.71710  Biso   1.000  Zn
  Zn10     1.0000 0.28290  0.78290  0.28290  Biso   1.000  Zn
  Zn11     1.0000 0.71710  0.78290  0.71710  Biso   1.000  Zn
  Zn12     1.0000 0.71710  0.21710  0.28290  Biso   1.000  Zn
  Zn13     1.0000 0.71710  0.28290  0.21710  Biso   1.000  Zn
  Zn14     1.0000 0.28290  0.28290  0.78290  Biso   1.000  Zn
  Zn15     1.0000 0.71710  0.71710  0.78290  Biso   1.000  Zn
  Zn16     1.0000 0.28290  0.71710  0.21710  Biso   1.000  Zn
  Zn17     1.0000 0.71710  0.21710  0.71710  Biso   1.000  Zn
  Zn18     1.0000 0.28290  0.78290  0.71710  Biso   1.000  Zn
  Zn19     1.0000 0.71710  0.78290  0.28290  Biso   1.000  Zn
  Zn20     1.0000 0.28290  0.21710  0.28290  Biso   1.000  Zn
  Zn21     1.0000 0.21710  0.28290  0.28290  Biso   1.000  Zn
  Zn22     1.0000 0.21710  0.78290  0.78290  Biso   1.000  Zn
  Zn23     1.0000 0.78290  0.28290  0.71710  Biso   1.000  Zn
  Zn24     1.0000 0.78290  0.78290  0.21710  Biso   1.000  Zn
  Zn25     1.0000 0.78290  0.71710  0.28290  Biso   1.000  Zn
  Zn26     1.0000 0.78290  0.21710  0.78290  Biso   1.000  Zn
  Zn27     1.0000 0.21710  0.71710  0.71710  Biso   1.000  Zn
  Zn28     1.0000 0.21710  0.21710  0.21710  Biso   1.000  Zn
  Zn29     1.0000 0.28290  0.71710  0.78290  Biso   1.000  Zn
  Zn30     1.0000 0.28290  0.28290  0.21710  Biso   1.000  Zn
  Zn31     1.0000 0.71710  0.71710  0.21710  Biso   1.000  Zn
  Zn32     1.0000 0.71710  0.28290  0.78290  Biso   1.000  Zn
  O97      1.0000 0.25000  0.75000  0.25000  Biso   1.000  O
  O98      1.0000 0.75000  0.25000  0.25000  Biso   1.000  O
  O99      1.0000 0.75000  0.75000  0.75000  Biso   1.000  O
  O100     1.0000 0.25000  0.25000  0.75000  Biso   1.000  O
  O101     1.0000 0.75000  0.25000  0.75000  Biso   1.000  O
  O102     1.0000 0.25000  0.75000  0.75000  Biso   1.000  O
  O103     1.0000 0.25000  0.25000  0.25000  Biso   1.000  O
  O104     1.0000 0.75000  0.75000  0.25000  Biso   1.000  O
  Ir1      1.0000 0.27300  0.81390  0.50000  Biso   1.000  Ir
  Ir2      1.0000 0.27300  0.31390  0.00000  Biso   1.000  Ir
  Ir3      1.0000 0.77300  0.81390  0.00000  Biso   1.000  Ir
  Ir4      1.0000 0.77300  0.31390  0.50000  Biso   1.000  Ir
  Ir5      1.0000 0.72700  0.18610  0.50000  Biso   1.000  Ir
  Ir6      1.0000 0.72700  0.68610  0.00000  Biso   1.000  Ir
  Ir7      1.0000 0.22700  0.18610  0.00000  Biso   1.000  Ir
  Ir8      1.0000 0.22700  0.68610  0.50000  Biso   1.000  Ir
  Ir9      1.0000 0.72700  0.81390  0.50000  Biso   1.000  Ir
  Ir10     1.0000 0.72700  0.31390  0.00000  Biso   1.000  Ir
  Ir11     1.0000 0.22700  0.81390  0.00000  Biso   1.000  Ir
  Ir12     1.0000 0.22700  0.31390  0.50000  Biso   1.000  Ir
  Ir13     1.0000 0.27300  0.18610  0.50000  Biso   1.000  Ir
  Ir14     1.0000 0.27300  0.68610  0.00000  Biso   1.000  Ir
  Ir15     1.0000 0.77300  0.18610  0.00000  Biso   1.000  Ir
  Ir16     1.0000 0.77300  0.68610  0.50000  Biso   1.000  Ir
  Ir17     1.0000 0.50000  0.27300  0.81390  Biso   1.000  Ir
  Ir18     1.0000 0.50000  0.77300  0.31390  Biso   1.000  Ir
  Ir19     1.0000 0.00000  0.27300  0.31390  Biso   1.000  Ir
  Ir20     1.0000 0.00000  0.77300  0.81390  Biso   1.000  Ir
  Ir21     1.0000 0.50000  0.72700  0.18610  Biso   1.000  Ir
  Ir22     1.0000 0.50000  0.22700  0.68610  Biso   1.000  Ir
  Ir23     1.0000 0.00000  0.72700  0.68610  Biso   1.000  Ir
  Ir24     1.0000 0.00000  0.22700  0.18610  Biso   1.000  Ir
  Ir25     1.0000 0.50000  0.72700  0.81390  Biso   1.000  Ir
  Ir26     1.0000 0.50000  0.22700  0.31390  Biso   1.000  Ir
  Ir27     1.0000 0.00000  0.72700  0.31390  Biso   1.000  Ir
  Ir28     1.0000 0.00000  0.22700  0.81390  Biso   1.000  Ir
  Ir29     1.0000 0.50000  0.27300  0.18610  Biso   1.000  Ir
  Ir30     1.0000 0.50000  0.77300  0.68610  Biso   1.000  Ir
  Ir31     1.0000 0.00000  0.27300  0.68610  Biso   1.000  Ir
  Ir32     1.0000 0.00000  0.77300  0.18610  Biso   1.000  Ir
  Ir33     1.0000 0.81390  0.50000  0.27300  Biso   1.000  Ir
  Ir34     1.0000 0.81390  0.00000  0.77300  Biso   1.000  Ir
  Ir35     1.0000 0.31390  0.50000  0.77300  Biso   1.000  Ir
  Ir36     1.0000 0.31390  0.00000  0.27300  Biso   1.000  Ir
  Ir37     1.0000 0.18610  0.50000  0.72700  Biso   1.000  Ir
  Ir38     1.0000 0.18610  0.00000  0.22700  Biso   1.000  Ir
  Ir39     1.0000 0.68610  0.50000  0.22700  Biso   1.000  Ir
  Ir40     1.0000 0.68610  0.00000  0.72700  Biso   1.000  Ir
  Ir41     1.0000 0.81390  0.50000  0.72700  Biso   1.000  Ir
  Ir42     1.0000 0.81390  0.00000  0.22700  Biso   1.000  Ir
  Ir43     1.0000 0.31390  0.50000  0.22700  Biso   1.000  Ir
  Ir44     1.0000 0.31390  0.00000  0.72700  Biso   1.000  Ir
  Ir45     1.0000 0.18610  0.50000  0.27300  Biso   1.000  Ir
  Ir46     1.0000 0.18610  0.00000  0.77300  Biso   1.000  Ir
  Ir47     1.0000 0.68610  0.50000  0.77300  Biso   1.000  Ir
  Ir48     1.0000 0.68610  0.00000  0.27300  Biso   1.000  Ir
  Ir49     1.0000 0.81390  0.27300  0.50000  Biso   1.000  Ir
  Ir50     1.0000 0.81390  0.77300  0.00000  Biso   1.000  Ir
  Ir51     1.0000 0.31390  0.27300  0.00000  Biso   1.000  Ir
  Ir52     1.0000 0.31390  0.77300  0.50000  Biso   1.000  Ir
  Ir53     1.0000 0.18610  0.72700  0.50000  Biso   1.000  Ir
  Ir54     1.0000 0.18610  0.22700  0.00000  Biso   1.000  Ir
  Ir55     1.0000 0.68610  0.72700  0.00000  Biso   1.000  Ir
  Ir56     1.0000 0.68610  0.22700  0.50000  Biso   1.000  Ir
  Ir57     1.0000 0.81390  0.72700  0.50000  Biso   1.000  Ir
  Ir58     1.0000 0.81390  0.22700  0.00000  Biso   1.000  Ir
  Ir59     1.0000 0.31390  0.72700  0.00000  Biso   1.000  Ir
  Ir60     1.0000 0.31390  0.22700  0.50000  Biso   1.000  Ir
  Ir61     1.0000 0.18610  0.27300  0.50000  Biso   1.000  Ir
  Ir62     1.0000 0.18610  0.77300  0.00000  Biso   1.000  Ir
  Ir63     1.0000 0.68610  0.27300  0.00000  Biso   1.000  Ir
  Ir64     1.0000 0.68610  0.77300  0.50000  Biso   1.000  Ir
  Ir65     1.0000 0.27300  0.50000  0.18610  Biso   1.000  Ir
  Ir66     1.0000 0.27300  0.00000  0.68610  Biso   1.000  Ir
  Ir67     1.0000 0.77300  0.50000  0.68610  Biso   1.000  Ir
  Ir68     1.0000 0.77300  0.00000  0.18610  Biso   1.000  Ir
  Ir69     1.0000 0.72700  0.50000  0.81390  Biso   1.000  Ir
  Ir70     1.0000 0.72700  0.00000  0.31390  Biso   1.000  Ir
  Ir71     1.0000 0.22700  0.50000  0.31390  Biso   1.000  Ir
  Ir72     1.0000 0.22700  0.00000  0.81390  Biso   1.000  Ir
  Ir73     1.0000 0.72700  0.50000  0.18610  Biso   1.000  Ir
  Ir74     1.0000 0.72700  0.00000  0.68610  Biso   1.000  Ir
  Ir75     1.0000 0.22700  0.50000  0.68610  Biso   1.000  Ir
  Ir76     1.0000 0.22700  0.00000  0.18610  Biso   1.000  Ir
  Ir77     1.0000 0.27300  0.50000  0.81390  Biso   1.000  Ir
  Ir78     1.0000 0.27300  0.00000  0.31390  Biso   1.000  Ir
  Ir79     1.0000 0.77300  0.50000  0.31390  Biso   1.000  Ir
  Ir80     1.0000 0.77300  0.00000  0.81390  Biso   1.000  Ir
  Ir81     1.0000 0.50000  0.81390  0.72700  Biso   1.000  Ir
  Ir82     1.0000 0.50000  0.31390  0.22700  Biso   1.000  Ir
  Ir83     1.0000 0.00000  0.81390  0.22700  Biso   1.000  Ir
  Ir84     1.0000 0.00000  0.31390  0.72700  Biso   1.000  Ir
  Ir85     1.0000 0.50000  0.18610  0.27300  Biso   1.000  Ir
  Ir86     1.0000 0.50000  0.68610  0.77300  Biso   1.000  Ir
  Ir87     1.0000 0.00000  0.18610  0.77300  Biso   1.000  Ir
  Ir88     1.0000 0.00000  0.68610  0.27300  Biso   1.000  Ir
  Ir89     1.0000 0.50000  0.81390  0.27300  Biso   1.000  Ir
  Ir90     1.0000 0.50000  0.31390  0.77300  Biso   1.000  Ir
  Ir91     1.0000 0.00000  0.81390  0.77300  Biso   1.000  Ir
  Ir92     1.0000 0.00000  0.31390  0.27300  Biso   1.000  Ir
  Ir93     1.0000 0.50000  0.18610  0.72700  Biso   1.000  Ir
  Ir94     1.0000 0.50000  0.68610  0.22700  Biso   1.000  Ir
  Ir95     1.0000 0.00000  0.18610  0.22700  Biso   1.000  Ir
  Ir96     1.0000 0.00000  0.68610  0.72700  Biso   1.000  Ir
