data_image0
_cell_length_a       28.0956
_cell_length_b       28.0956
_cell_length_c       64.0922
_cell_angle_alpha    90
_cell_angle_beta     90
_cell_angle_gamma    120

_symmetry_space_group_name_H-M    "P 1"
_symmetry_int_tables_number       1

loop_
  _symmetry_equiv_pos_as_xyz
  'x, y, z'

loop_
  _atom_site_label
  _atom_site_occupancy
  _atom_site_fract_x
  _atom_site_fract_y
  _atom_site_fract_z
  _atom_site_thermal_displace_type
  _atom_site_B_iso_or_equiv
  _atom_site_type_symbol
  Rb1      1.0000 0.78724  0.90110  0.14256  Biso   1.000  Rb
  O1       1.0000 0.72650  0.18650  0.10710  Biso   1.000  O
  C1       1.0000 0.57870  0.02590  0.06864  Biso   1.000  C
  Rb2      1.0000 0.58794  0.78872  0.20662  Biso   1.000  Rb
  O2       1.0000 0.68310  0.21800  0.09320  Biso   1.000  O
  C2       1.0000 0.61340  0.02930  0.08470  Biso   1.000  C
  Rb3      1.0000 0.54490  0.08557  0.11973  Biso   1.000  Rb
  O3       1.0000 0.54610  0.97610  0.05788  Biso   1.000  O
  C3       1.0000 0.64560  0.07650  0.09300  Biso   1.000  C
  H1       1.0000 0.66900  0.07780  0.10360  Biso   1.000  H
  Rb4      1.0000 0.43666  0.87523  0.06157  Biso   1.000  Rb
  O4       1.0000 0.38550  0.92090  0.00050  Biso   1.000  O
  C4       1.0000 0.64810  0.12800  0.08720  Biso   1.000  C
  Rb5      1.0000 0.77240  0.14490  0.13378  Biso   1.000  Rb
  O5       1.0000 0.31050  0.88290  0.02060  Biso   1.000  O
  C5       1.0000 0.61140  0.12260  0.07131  Biso   1.000  C
  H2       1.0000 0.60970  0.15340  0.06700  Biso   1.000  H
  O6       1.0000 0.47820  0.06390  0.08209  Biso   1.000  O
  C6       1.0000 0.57670  0.07100  0.06142  Biso   1.000  C
  O7       1.0000 0.42650  0.10300  0.15760  Biso   1.000  O
  C7       1.0000 0.68620  0.18010  0.09650  Biso   1.000  C
  O8       1.0000 0.45850  0.05380  0.17710  Biso   1.000  O
  C8       1.0000 0.57450  0.96760  0.04070  Biso   1.000  C
  H3       1.0000 0.59550  0.95170  0.04590  Biso   1.000  H
  H4       1.0000 0.54820  0.94330  0.03070  Biso   1.000  H
  H5       1.0000 0.59870  0.00210  0.03420  Biso   1.000  H
  O9       1.0000 0.39470  0.90310  0.09930  Biso   1.000  O
  C9       1.0000 0.53670  0.06960  0.04500  Biso   1.000  C
  H6       1.0000 0.54810  0.06330  0.03150  Biso   1.000  H
  H7       1.0000 0.53960  0.10540  0.04450  Biso   1.000  H
  O10      1.0000 0.44350  0.73710  0.09710  Biso   1.000  O
  C10      1.0000 0.47750  0.02720  0.04820  Biso   1.000  C
  O11      1.0000 0.51150  0.76740  0.07580  Biso   1.000  O
  C11      1.0000 0.44900  0.99320  0.03310  Biso   1.000  C
  H8       1.0000 0.46660  0.99470  0.02070  Biso   1.000  H
  O12      1.0000 0.55060  0.98680  0.12384  Biso   1.000  O
  C12      1.0000 0.39180  0.95380  0.03520  Biso   1.000  C
  C13      1.0000 0.36650  0.95220  0.05430  Biso   1.000  C
  H9       1.0000 0.32940  0.92710  0.05630  Biso   1.000  H
  C14      1.0000 0.39690  0.98790  0.07010  Biso   1.000  C
  C15      1.0000 0.45110  0.02730  0.06750  Biso   1.000  C
  C16      1.0000 0.36030  0.91540  0.01570  Biso   1.000  C
  C17      1.0000 0.47170  0.11080  0.07800  Biso   1.000  C
  H10      1.0000 0.43900  0.10580  0.08470  Biso   1.000  H
  H11      1.0000 0.50300  0.14340  0.08320  Biso   1.000  H
  H12      1.0000 0.46860  0.11430  0.06320  Biso   1.000  H
  O13      1.0000 0.57000  0.19200  0.11320  Biso   1.000  O
  C18      1.0000 0.36790  0.98770  0.09120  Biso   1.000  C
  H13      1.0000 0.33060  0.95700  0.09060  Biso   1.000  H
  H14      1.0000 0.36530  0.02090  0.09140  Biso   1.000  H
  O14      1.0000 0.86300  0.02200  0.29730  Biso   1.000  O
  C19      1.0000 0.39190  0.98440  0.11140  Biso   1.000  C
  C20      1.0000 0.40310  0.02220  0.12560  Biso   1.000  C
  H15      1.0000 0.39710  0.05120  0.12270  Biso   1.000  H
  C21      1.0000 0.42330  0.01940  0.14440  Biso   1.000  C
  C22      1.0000 0.43710  0.97430  0.14470  Biso   1.000  C
  H16      1.0000 0.45380  0.97330  0.15710  Biso   1.000  H
  O15      1.0000 0.83370  0.23260  0.12740  Biso   1.000  O
  C23      1.0000 0.43120  0.93740  0.13200  Biso   1.000  C
  O16      1.0000 0.84340  0.11000  0.15550  Biso   1.000  O
  C24      1.0000 0.40350  0.93930  0.11390  Biso   1.000  C
  O17      1.0000 0.85500  0.13110  0.15720  Biso   1.000  O
  C25      1.0000 0.43350  0.06360  0.16030  Biso   1.000  C
  O18      1.0000 0.76920  0.04610  0.11022  Biso   1.000  O
  C26      1.0000 0.34170  0.85610  0.10410  Biso   1.000  C
  H17      1.0000 0.31510  0.85340  0.09410  Biso   1.000  H
  H18      1.0000 0.34420  0.82320  0.10370  Biso   1.000  H
  H19      1.0000 0.33050  0.86030  0.11780  Biso   1.000  H
  O19      1.0000 0.74200  0.97170  0.09020  Biso   1.000  O
  C27      1.0000 0.44850  0.89970  0.13790  Biso   1.000  C
  H20      1.0000 0.47020  0.91290  0.15050  Biso   1.000  H
  H21      1.0000 0.41640  0.86460  0.14100  Biso   1.000  H
  O20      1.0000 0.77000  0.96500  0.08970  Biso   1.000  O
  C28      1.0000 0.48340  0.89100  0.12080  Biso   1.000  C
  O21      1.0000 0.59900  0.85930  0.17148  Biso   1.000  O
  C29      1.0000 0.47150  0.83860  0.11130  Biso   1.000  C
  H22      1.0000 0.43940  0.80690  0.11520  Biso   1.000  H
  O22      1.0000 0.43930  0.64770  0.16910  Biso   1.000  O
  C30      1.0000 0.50240  0.83420  0.09810  Biso   1.000  C
  O23      1.0000 0.46380  0.60900  0.19110  Biso   1.000  O
  C31      1.0000 0.54280  0.87390  0.09240  Biso   1.000  C
  H23      1.0000 0.56400  0.86910  0.08230  Biso   1.000  H
  O24      1.0000 0.48280  0.61000  0.18890  Biso   1.000  O
  C32      1.0000 0.56280  0.93170  0.10000  Biso   1.000  C
  O25      1.0000 0.68390  0.79480  0.14028  Biso   1.000  O
  C33      1.0000 0.53290  0.93690  0.11490  Biso   1.000  C
  O26      1.0000 0.88910  0.81500  0.14800  Biso   1.000  O
  C34      1.0000 0.48640  0.77380  0.08960  Biso   1.000  C
  O27      1.0000 0.93240  0.88890  0.17120  Biso   1.000  O
  C35      1.0000 0.58490  0.99260  0.14060  Biso   1.000  C
  H24      1.0000 0.61010  0.98070  0.13650  Biso   1.000  H
  H25      1.0000 0.60510  0.03050  0.14470  Biso   1.000  H
  H26      1.0000 0.56310  0.97070  0.15210  Biso   1.000  H
  O28      1.0000 0.68670  0.78220  0.20338  Biso   1.000  O
  C36      1.0000 0.61550  0.97820  0.09180  Biso   1.000  C
  H27      1.0000 0.64330  0.98920  0.10260  Biso   1.000  H
  H28      1.0000 0.62730  0.96490  0.08000  Biso   1.000  H
  O29      1.0000 0.65170  0.88110  0.27170  Biso   1.000  O
  C37      1.0000 0.67730  0.94650  0.16100  Biso   1.000  C
  O30      1.0000 0.59320  0.90040  0.25520  Biso   1.000  O
  C38      1.0000 0.71080  0.97910  0.14500  Biso   1.000  C
  H29      1.0000 0.73600  0.01580  0.14760  Biso   1.000  H
  O31      1.0000 0.76340  0.93950  0.18313  Biso   1.000  O
  C39      1.0000 0.70780  0.95830  0.12490  Biso   1.000  C
  C40      1.0000 0.66850  0.90160  0.12080  Biso   1.000  C
  H30      1.0000 0.66660  0.88730  0.10760  Biso   1.000  H
  C41      1.0000 0.63360  0.86810  0.13619  Biso   1.000  C
  O32      1.0000 0.52780  0.67560  0.22480  Biso   1.000  O
  C42      1.0000 0.63720  0.89240  0.15620  Biso   1.000  C
  O33      1.0000 0.55150  0.67390  0.22170  Biso   1.000  O
  C43      1.0000 0.74270  0.99580  0.10710  Biso   1.000  C
  C44      1.0000 0.54980  0.86130  0.17080  Biso   1.000  C
  H31      1.0000 0.55750  0.89780  0.17400  Biso   1.000  H
  H32      1.0000 0.52440  0.83610  0.18090  Biso   1.000  H
  H33      1.0000 0.53400  0.85110  0.15710  Biso   1.000  H
  O34      1.0000 0.90550  0.97150  0.15620  Biso   1.000  O
  C45      1.0000 0.59010  0.80880  0.13180  Biso   1.000  C
  H34      1.0000 0.55430  0.80600  0.13240  Biso   1.000  H
  H35      1.0000 0.59520  0.79990  0.11760  Biso   1.000  H
  O35      1.0000 0.90420  0.95720  0.15000  Biso   1.000  O
  C46      1.0000 0.59000  0.76650  0.14626  Biso   1.000  C
  O36      1.0000 0.85130  0.01460  0.12680  Biso   1.000  O
  C47      1.0000 0.54020  0.72920  0.15510  Biso   1.000  C
  H36      1.0000 0.50910  0.73170  0.15210  Biso   1.000  H
  O37      1.0000 0.84630  0.02570  0.13330  Biso   1.000  O
  C48      1.0000 0.53560  0.68700  0.16886  Biso   1.000  C
  C49      1.0000 0.58320  0.68510  0.17320  Biso   1.000  C
  H37      1.0000 0.58110  0.65810  0.18210  Biso   1.000  H
  C50      1.0000 0.63230  0.72140  0.16470  Biso   1.000  C
  C51      1.0000 0.63680  0.76110  0.15045  Biso   1.000  C
  C52      1.0000 0.47650  0.64710  0.17680  Biso   1.000  C
  C53      1.0000 0.68740  0.77090  0.12060  Biso   1.000  C
  H38      1.0000 0.67980  0.73400  0.12300  Biso   1.000  H
  H39      1.0000 0.72360  0.79250  0.11490  Biso   1.000  H
  H40      1.0000 0.66090  0.77040  0.11100  Biso   1.000  H
  C54      1.0000 0.68240  0.71620  0.16960  Biso   1.000  C
  H41      1.0000 0.69110  0.70200  0.15720  Biso   1.000  H
  H42      1.0000 0.67240  0.68880  0.18050  Biso   1.000  H
  C55      1.0000 0.73520  0.76850  0.17650  Biso   1.000  C
  C56      1.0000 0.78640  0.78630  0.16760  Biso   1.000  C
  H43      1.0000 0.78800  0.76650  0.15630  Biso   1.000  H
  C57      1.0000 0.83420  0.83000  0.17390  Biso   1.000  C
  C58      1.0000 0.83240  0.86140  0.18870  Biso   1.000  C
  H44      1.0000 0.86450  0.89330  0.19250  Biso   1.000  H
  C59      1.0000 0.78020  0.84720  0.19950  Biso   1.000  C
  C60      1.0000 0.73470  0.80030  0.19290  Biso   1.000  C
  C61      1.0000 0.89110  0.84460  0.16140  Biso   1.000  C
  C62      1.0000 0.68010  0.74760  0.22140  Biso   1.000  C
  H45      1.0000 0.69960  0.72820  0.21900  Biso   1.000  H
  H46      1.0000 0.64180  0.72170  0.22340  Biso   1.000  H
  H47      1.0000 0.69440  0.77020  0.23360  Biso   1.000  H
  C63      1.0000 0.78030  0.88060  0.21740  Biso   1.000  C
  H48      1.0000 0.81630  0.91330  0.21820  Biso   1.000  H
  H49      1.0000 0.77520  0.85970  0.23010  Biso   1.000  H
  C64      1.0000 0.73770  0.89830  0.21696  Biso   1.000  C
  C65      1.0000 0.70540  0.88920  0.23437  Biso   1.000  C
  H50      1.0000 0.71090  0.87210  0.24580  Biso   1.000  H
  C66      1.0000 0.66500  0.90420  0.23600  Biso   1.000  C
  Rb6      1.0000 0.78358  0.14122  0.12838  Biso   1.000  Rb
  C67      1.0000 0.65830  0.92980  0.21859  Biso   1.000  C
  H51      1.0000 0.63120  0.93960  0.21880  Biso   1.000  H
  C68      1.0000 0.69070  0.94140  0.20075  Biso   1.000  C
  C69      1.0000 0.72760  0.92520  0.20040  Biso   1.000  C
  C70      1.0000 0.63660  0.89350  0.25520  Biso   1.000  C
  C71      1.0000 0.81380  0.99390  0.18430  Biso   1.000  C
  H52      1.0000 0.80440  0.02220  0.18300  Biso   1.000  H
  H53      1.0000 0.83830  0.99720  0.17320  Biso   1.000  H
  H54      1.0000 0.83150  0.99750  0.19750  Biso   1.000  H
  C72      1.0000 0.68180  0.97010  0.18190  Biso   1.000  C
  H55      1.0000 0.64860  0.97160  0.18440  Biso   1.000  H
  H56      1.0000 0.71210  0.00770  0.18160  Biso   1.000  H
  Rb7      1.0000 0.45391  0.23443  0.47589  Biso   1.000  Rb
  O38      1.0000 0.39317  0.51983  0.44043  Biso   1.000  O
  C73      1.0000 0.24537  0.35923  0.40197  Biso   1.000  C
  Rb8      1.0000 0.25461  0.12205  0.53995  Biso   1.000  Rb
  O39      1.0000 0.34977  0.55133  0.42653  Biso   1.000  O
  C74      1.0000 0.28007  0.36263  0.41803  Biso   1.000  C
  Rb9      1.0000 0.21157  0.41890  0.45306  Biso   1.000  Rb
  O40      1.0000 0.21277  0.30943  0.39121  Biso   1.000  O
  C75      1.0000 0.31227  0.40983  0.42633  Biso   1.000  C
  H57      1.0000 0.33567  0.41113  0.43693  Biso   1.000  H
  Rb10     1.0000 0.10333  0.20856  0.39490  Biso   1.000  Rb
  O41      1.0000 0.05217  0.25423  0.33383  Biso   1.000  O
  C76      1.0000 0.31477  0.46133  0.42053  Biso   1.000  C
  Rb11     1.0000 0.43907  0.47823  0.46711  Biso   1.000  Rb
  O42      1.0000 0.97717  0.21623  0.35393  Biso   1.000  O
  C77      1.0000 0.27807  0.45593  0.40464  Biso   1.000  C
  H58      1.0000 0.27637  0.48673  0.40033  Biso   1.000  H
  O43      1.0000 0.14487  0.39723  0.41542  Biso   1.000  O
  C78      1.0000 0.24337  0.40433  0.39475  Biso   1.000  C
  O44      1.0000 0.09317  0.43633  0.49093  Biso   1.000  O
  C79      1.0000 0.35287  0.51343  0.42983  Biso   1.000  C
  O45      1.0000 0.12517  0.38713  0.51043  Biso   1.000  O
  C80      1.0000 0.24117  0.30093  0.37403  Biso   1.000  C
  H59      1.0000 0.26217  0.28503  0.37923  Biso   1.000  H
  H60      1.0000 0.21487  0.27663  0.36403  Biso   1.000  H
  H61      1.0000 0.26537  0.33543  0.36753  Biso   1.000  H
  O46      1.0000 0.06137  0.23643  0.43263  Biso   1.000  O
  C81      1.0000 0.20337  0.40293  0.37833  Biso   1.000  C
  H62      1.0000 0.21477  0.39663  0.36483  Biso   1.000  H
  H63      1.0000 0.20627  0.43873  0.37783  Biso   1.000  H
  O47      1.0000 0.11017  0.07043  0.43043  Biso   1.000  O
  C82      1.0000 0.14417  0.36053  0.38153  Biso   1.000  C
  O48      1.0000 0.17817  0.10073  0.40913  Biso   1.000  O
  C83      1.0000 0.11567  0.32653  0.36643  Biso   1.000  C
  H64      1.0000 0.13327  0.32803  0.35403  Biso   1.000  H
  O49      1.0000 0.21727  0.32013  0.45717  Biso   1.000  O
  C84      1.0000 0.05847  0.28713  0.36853  Biso   1.000  C
  C85      1.0000 0.03317  0.28553  0.38763  Biso   1.000  C
  H65      1.0000 0.99607  0.26043  0.38963  Biso   1.000  H
  C86      1.0000 0.06357  0.32123  0.40343  Biso   1.000  C
  C87      1.0000 0.11777  0.36063  0.40083  Biso   1.000  C
  C88      1.0000 0.02697  0.24873  0.34903  Biso   1.000  C
  C89      1.0000 0.13837  0.44413  0.41133  Biso   1.000  C
  H66      1.0000 0.10567  0.43913  0.41803  Biso   1.000  H
  H67      1.0000 0.16967  0.47673  0.41653  Biso   1.000  H
  H68      1.0000 0.13527  0.44763  0.39653  Biso   1.000  H
  O50      1.0000 0.23667  0.52533  0.44653  Biso   1.000  O
  C90      1.0000 0.03457  0.32103  0.42453  Biso   1.000  C
  H69      1.0000 0.99727  0.29033  0.42393  Biso   1.000  H
  H70      1.0000 0.03197  0.35423  0.42473  Biso   1.000  H
  O51      1.0000 0.52967  0.35533  0.63063  Biso   1.000  O
  C91      1.0000 0.05857  0.31773  0.44473  Biso   1.000  C
  C92      1.0000 0.06977  0.35553  0.45893  Biso   1.000  C
  H71      1.0000 0.06377  0.38453  0.45603  Biso   1.000  H
  C93      1.0000 0.08997  0.35273  0.47773  Biso   1.000  C
  C94      1.0000 0.10377  0.30763  0.47803  Biso   1.000  C
  H72      1.0000 0.12047  0.30663  0.49043  Biso   1.000  H
  O52      1.0000 0.50037  0.56593  0.46073  Biso   1.000  O
  C95      1.0000 0.09787  0.27073  0.46533  Biso   1.000  C
  O53      1.0000 0.51007  0.44333  0.48883  Biso   1.000  O
  C96      1.0000 0.07017  0.27263  0.44723  Biso   1.000  C
  O54      1.0000 0.52167  0.46443  0.49053  Biso   1.000  O
  C97      1.0000 0.10017  0.39693  0.49363  Biso   1.000  C
  O55      1.0000 0.43587  0.37943  0.44355  Biso   1.000  O
  C98      1.0000 0.00837  0.18943  0.43743  Biso   1.000  C
  H73      1.0000 0.98177  0.18673  0.42743  Biso   1.000  H
  H74      1.0000 0.01087  0.15653  0.43703  Biso   1.000  H
  H75      1.0000 0.99717  0.19363  0.45113  Biso   1.000  H
  O56      1.0000 0.40867  0.30503  0.42353  Biso   1.000  O
  C99      1.0000 0.11517  0.23303  0.47123  Biso   1.000  C
  H76      1.0000 0.13687  0.24623  0.48383  Biso   1.000  H
  H77      1.0000 0.08307  0.19793  0.47433  Biso   1.000  H
  O57      1.0000 0.43667  0.29833  0.42303  Biso   1.000  O
  C100     1.0000 0.15007  0.22433  0.45413  Biso   1.000  C
  O58      1.0000 0.26567  0.19263  0.50481  Biso   1.000  O
  C101     1.0000 0.13817  0.17193  0.44463  Biso   1.000  C
  H78      1.0000 0.10607  0.14023  0.44853  Biso   1.000  H
  O59      1.0000 0.10597  0.98103  0.50243  Biso   1.000  O
  C102     1.0000 0.16907  0.16753  0.43143  Biso   1.000  C
  O60      1.0000 0.13047  0.94233  0.52443  Biso   1.000  O
  C103     1.0000 0.20947  0.20723  0.42573  Biso   1.000  C
  H79      1.0000 0.23067  0.20243  0.41563  Biso   1.000  H
  O61      1.0000 0.14947  0.94333  0.52223  Biso   1.000  O
  C104     1.0000 0.22947  0.26503  0.43333  Biso   1.000  C
  O62      1.0000 0.35057  0.12813  0.47361  Biso   1.000  O
  C105     1.0000 0.19957  0.27023  0.44823  Biso   1.000  C
  O63      1.0000 0.55577  0.14833  0.48133  Biso   1.000  O
  C106     1.0000 0.15307  0.10713  0.42293  Biso   1.000  C
  O64      1.0000 0.59907  0.22223  0.50453  Biso   1.000  O
  C107     1.0000 0.25157  0.32593  0.47393  Biso   1.000  C
  H80      1.0000 0.27677  0.31403  0.46983  Biso   1.000  H
  H81      1.0000 0.27177  0.36383  0.47803  Biso   1.000  H
  H82      1.0000 0.22977  0.30403  0.48543  Biso   1.000  H
  O65      1.0000 0.35337  0.11553  0.53671  Biso   1.000  O
  C108     1.0000 0.28217  0.31153  0.42513  Biso   1.000  C
  H83      1.0000 0.30997  0.32253  0.43593  Biso   1.000  H
  H84      1.0000 0.29397  0.29823  0.41333  Biso   1.000  H
  O66      1.0000 0.31837  0.21443  0.60503  Biso   1.000  O
  C109     1.0000 0.34397  0.27983  0.49433  Biso   1.000  C
  O67      1.0000 0.25987  0.23373  0.58853  Biso   1.000  O
  C110     1.0000 0.37747  0.31243  0.47833  Biso   1.000  C
  H85      1.0000 0.40267  0.34913  0.48093  Biso   1.000  H
  O68      1.0000 0.43007  0.27283  0.51646  Biso   1.000  O
  C111     1.0000 0.37447  0.29163  0.45823  Biso   1.000  C
  C112     1.0000 0.33517  0.23493  0.45413  Biso   1.000  C
  H86      1.0000 0.33327  0.22063  0.44093  Biso   1.000  H
  C113     1.0000 0.30027  0.20143  0.46952  Biso   1.000  C
  O69      1.0000 0.19447  0.00893  0.55813  Biso   1.000  O
  C114     1.0000 0.30387  0.22573  0.48953  Biso   1.000  C
  O70      1.0000 0.21817  0.00723  0.55503  Biso   1.000  O
  C115     1.0000 0.40937  0.32913  0.44043  Biso   1.000  C
  C116     1.0000 0.21647  0.19463  0.50413  Biso   1.000  C
  H87      1.0000 0.22417  0.23113  0.50733  Biso   1.000  H
  H88      1.0000 0.19107  0.16943  0.51423  Biso   1.000  H
  H89      1.0000 0.20067  0.18443  0.49043  Biso   1.000  H
  O71      1.0000 0.57217  0.30483  0.48953  Biso   1.000  O
  C117     1.0000 0.25677  0.14213  0.46513  Biso   1.000  C
  H90      1.0000 0.22097  0.13933  0.46573  Biso   1.000  H
  H91      1.0000 0.26187  0.13323  0.45093  Biso   1.000  H
  O72      1.0000 0.57087  0.29053  0.48333  Biso   1.000  O
  C118     1.0000 0.25667  0.09983  0.47959  Biso   1.000  C
  O73      1.0000 0.51797  0.34793  0.46013  Biso   1.000  O
  C119     1.0000 0.20687  0.06253  0.48843  Biso   1.000  C
  H92      1.0000 0.17577  0.06503  0.48543  Biso   1.000  H
  O74      1.0000 0.51297  0.35903  0.46663  Biso   1.000  O
  C120     1.0000 0.20227  0.02033  0.50219  Biso   1.000  C
  C121     1.0000 0.24987  0.01843  0.50653  Biso   1.000  C
  H93      1.0000 0.24777  0.99143  0.51543  Biso   1.000  H
  C122     1.0000 0.29897  0.05473  0.49803  Biso   1.000  C
  C123     1.0000 0.30347  0.09443  0.48378  Biso   1.000  C
  C124     1.0000 0.14317  0.98043  0.51013  Biso   1.000  C
  C125     1.0000 0.35407  0.10423  0.45393  Biso   1.000  C
  H94      1.0000 0.34647  0.06733  0.45633  Biso   1.000  H
  H95      1.0000 0.39027  0.12583  0.44823  Biso   1.000  H
  H96      1.0000 0.32757  0.10373  0.44433  Biso   1.000  H
  C126     1.0000 0.34907  0.04953  0.50293  Biso   1.000  C
  H97      1.0000 0.35777  0.03533  0.49053  Biso   1.000  H
  H98      1.0000 0.33907  0.02213  0.51383  Biso   1.000  H
  C127     1.0000 0.40187  0.10183  0.50983  Biso   1.000  C
  C128     1.0000 0.45307  0.11963  0.50093  Biso   1.000  C
  H99      1.0000 0.45467  0.09983  0.48963  Biso   1.000  H
  C129     1.0000 0.50087  0.16333  0.50723  Biso   1.000  C
  C130     1.0000 0.49907  0.19473  0.52203  Biso   1.000  C
  H100     1.0000 0.53117  0.22663  0.52583  Biso   1.000  H
  C131     1.0000 0.44687  0.18053  0.53283  Biso   1.000  C
  C132     1.0000 0.40137  0.13363  0.52623  Biso   1.000  C
  C133     1.0000 0.55777  0.17793  0.49473  Biso   1.000  C
  C134     1.0000 0.34677  0.08093  0.55473  Biso   1.000  C
  H101     1.0000 0.36627  0.06153  0.55233  Biso   1.000  H
  H102     1.0000 0.30847  0.05503  0.55673  Biso   1.000  H
  H103     1.0000 0.36107  0.10353  0.56693  Biso   1.000  H
  C135     1.0000 0.44697  0.21393  0.55073  Biso   1.000  C
  H104     1.0000 0.48297  0.24663  0.55153  Biso   1.000  H
  H105     1.0000 0.44187  0.19303  0.56343  Biso   1.000  H
  C136     1.0000 0.40437  0.23163  0.55029  Biso   1.000  C
  C137     1.0000 0.37207  0.22253  0.56770  Biso   1.000  C
  H106     1.0000 0.37757  0.20543  0.57913  Biso   1.000  H
  C138     1.0000 0.33167  0.23753  0.56933  Biso   1.000  C
  Rb12     1.0000 0.45025  0.47455  0.46171  Biso   1.000  Rb
  C139     1.0000 0.32497  0.26313  0.55192  Biso   1.000  C
  H107     1.0000 0.29787  0.27293  0.55213  Biso   1.000  H
  C140     1.0000 0.35737  0.27473  0.53408  Biso   1.000  C
  C141     1.0000 0.39427  0.25853  0.53373  Biso   1.000  C
  C142     1.0000 0.30327  0.22683  0.58853  Biso   1.000  C
  C143     1.0000 0.48047  0.32723  0.51763  Biso   1.000  C
  H108     1.0000 0.47107  0.35553  0.51633  Biso   1.000  H
  H109     1.0000 0.50497  0.33053  0.50653  Biso   1.000  H
  H110     1.0000 0.49817  0.33083  0.53083  Biso   1.000  H
  C144     1.0000 0.34847  0.30343  0.51523  Biso   1.000  C
  H111     1.0000 0.31527  0.30493  0.51773  Biso   1.000  H
  H112     1.0000 0.37877  0.34103  0.51493  Biso   1.000  H
  Rb13     1.0000 0.12057  0.56777  0.80923  Biso   1.000  Rb
  O75      1.0000 0.05983  0.85317  0.77377  Biso   1.000  O
  C145     1.0000 0.91203  0.69257  0.73531  Biso   1.000  C
  Rb14     1.0000 0.92127  0.45539  0.87329  Biso   1.000  Rb
  O76      1.0000 0.01643  0.88467  0.75987  Biso   1.000  O
  C146     1.0000 0.94673  0.69597  0.75137  Biso   1.000  C
  Rb15     1.0000 0.87823  0.75224  0.78640  Biso   1.000  Rb
  O77      1.0000 0.87943  0.64277  0.72455  Biso   1.000  O
  C147     1.0000 0.97893  0.74317  0.75967  Biso   1.000  C
  H113     1.0000 0.00233  0.74447  0.77027  Biso   1.000  H
  Rb16     1.0000 0.76999  0.54190  0.72824  Biso   1.000  Rb
  O78      1.0000 0.71883  0.58757  0.66717  Biso   1.000  O
  C148     1.0000 0.98143  0.79467  0.75387  Biso   1.000  C
  Rb17     1.0000 0.10573  0.81157  0.80045  Biso   1.000  Rb
  O79      1.0000 0.64383  0.54957  0.68727  Biso   1.000  O
  C149     1.0000 0.94473  0.78927  0.73798  Biso   1.000  C
  H114     1.0000 0.94303  0.82007  0.73367  Biso   1.000  H
  O80      1.0000 0.81153  0.73057  0.74876  Biso   1.000  O
  C150     1.0000 0.91003  0.73767  0.72809  Biso   1.000  C
  O81      1.0000 0.75983  0.76967  0.82427  Biso   1.000  O
  C151     1.0000 0.01953  0.84677  0.76317  Biso   1.000  C
  O82      1.0000 0.79183  0.72047  0.84377  Biso   1.000  O
  C152     1.0000 0.90783  0.63427  0.70737  Biso   1.000  C
  H115     1.0000 0.92883  0.61837  0.71257  Biso   1.000  H
  H116     1.0000 0.88153  0.60997  0.69737  Biso   1.000  H
  H117     1.0000 0.93203  0.66877  0.70087  Biso   1.000  H
  O83      1.0000 0.72803  0.56977  0.76597  Biso   1.000  O
  C153     1.0000 0.87003  0.73627  0.71167  Biso   1.000  C
  H118     1.0000 0.88143  0.72997  0.69817  Biso   1.000  H
  H119     1.0000 0.87293  0.77207  0.71117  Biso   1.000  H
  O84      1.0000 0.77683  0.40377  0.76377  Biso   1.000  O
  C154     1.0000 0.81083  0.69387  0.71487  Biso   1.000  C
  O85      1.0000 0.84483  0.43407  0.74247  Biso   1.000  O
  C155     1.0000 0.78233  0.65987  0.69977  Biso   1.000  C
  H120     1.0000 0.79993  0.66137  0.68737  Biso   1.000  H
  O86      1.0000 0.88393  0.65347  0.79051  Biso   1.000  O
  C156     1.0000 0.72513  0.62047  0.70187  Biso   1.000  C
  C157     1.0000 0.69983  0.61887  0.72097  Biso   1.000  C
  H121     1.0000 0.66273  0.59377  0.72297  Biso   1.000  H
  C158     1.0000 0.73023  0.65457  0.73677  Biso   1.000  C
  C159     1.0000 0.78443  0.69397  0.73417  Biso   1.000  C
  C160     1.0000 0.69363  0.58207  0.68237  Biso   1.000  C
  C161     1.0000 0.80503  0.77747  0.74467  Biso   1.000  C
  H122     1.0000 0.77233  0.77247  0.75137  Biso   1.000  H
  H123     1.0000 0.83633  0.81007  0.74987  Biso   1.000  H
  H124     1.0000 0.80193  0.78097  0.72987  Biso   1.000  H
  O87      1.0000 0.90333  0.85867  0.77987  Biso   1.000  O
  C162     1.0000 0.70123  0.65437  0.75787  Biso   1.000  C
  H125     1.0000 0.66393  0.62367  0.75727  Biso   1.000  H
  H126     1.0000 0.69863  0.68757  0.75807  Biso   1.000  H
  O88      1.0000 0.19633  0.68867  0.96397  Biso   1.000  O
  C163     1.0000 0.72523  0.65107  0.77807  Biso   1.000  C
  C164     1.0000 0.73643  0.68887  0.79227  Biso   1.000  C
  H127     1.0000 0.73043  0.71787  0.78937  Biso   1.000  H
  C165     1.0000 0.75663  0.68607  0.81107  Biso   1.000  C
  C166     1.0000 0.77043  0.64097  0.81137  Biso   1.000  C
  H128     1.0000 0.78713  0.63997  0.82377  Biso   1.000  H
  O89      1.0000 0.16703  0.89927  0.79407  Biso   1.000  O
  C167     1.0000 0.76453  0.60407  0.79867  Biso   1.000  C
  O90      1.0000 0.17673  0.77667  0.82217  Biso   1.000  O
  C168     1.0000 0.73683  0.60597  0.78057  Biso   1.000  C
  O91      1.0000 0.18833  0.79777  0.82387  Biso   1.000  O
  C169     1.0000 0.76683  0.73027  0.82697  Biso   1.000  C
  O92      1.0000 0.10253  0.71277  0.77689  Biso   1.000  O
  C170     1.0000 0.67503  0.52277  0.77077  Biso   1.000  C
  H129     1.0000 0.64843  0.52007  0.76077  Biso   1.000  H
  H130     1.0000 0.67753  0.48987  0.77037  Biso   1.000  H
  H131     1.0000 0.66383  0.52697  0.78447  Biso   1.000  H
  O93      1.0000 0.07533  0.63837  0.75687  Biso   1.000  O
  C171     1.0000 0.78183  0.56637  0.80457  Biso   1.000  C
  H132     1.0000 0.80353  0.57957  0.81717  Biso   1.000  H
  H133     1.0000 0.74973  0.53127  0.80767  Biso   1.000  H
  O94      1.0000 0.10333  0.63167  0.75637  Biso   1.000  O
  C172     1.0000 0.81673  0.55767  0.78747  Biso   1.000  C
  O95      1.0000 0.93233  0.52597  0.83815  Biso   1.000  O
  C173     1.0000 0.80483  0.50527  0.77797  Biso   1.000  C
  H134     1.0000 0.77273  0.47357  0.78187  Biso   1.000  H
  O96      1.0000 0.77263  0.31437  0.83577  Biso   1.000  O
  C174     1.0000 0.83573  0.50087  0.76477  Biso   1.000  C
  O97      1.0000 0.79713  0.27567  0.85777  Biso   1.000  O
  C175     1.0000 0.87613  0.54057  0.75907  Biso   1.000  C
  H135     1.0000 0.89733  0.53577  0.74897  Biso   1.000  H
  O98      1.0000 0.81613  0.27667  0.85557  Biso   1.000  O
  C176     1.0000 0.89613  0.59837  0.76667  Biso   1.000  C
  O99      1.0000 0.01723  0.46147  0.80695  Biso   1.000  O
  C177     1.0000 0.86623  0.60357  0.78157  Biso   1.000  C
  O100     1.0000 0.22243  0.48167  0.81467  Biso   1.000  O
  C178     1.0000 0.81973  0.44047  0.75627  Biso   1.000  C
  O101     1.0000 0.26573  0.55557  0.83787  Biso   1.000  O
  C179     1.0000 0.91823  0.65927  0.80727  Biso   1.000  C
  H136     1.0000 0.94343  0.64737  0.80317  Biso   1.000  H
  H137     1.0000 0.93843  0.69717  0.81137  Biso   1.000  H
  H138     1.0000 0.89643  0.63737  0.81877  Biso   1.000  H
  O102     1.0000 0.02003  0.44887  0.87005  Biso   1.000  O
  C180     1.0000 0.94883  0.64487  0.75847  Biso   1.000  C
  H139     1.0000 0.97663  0.65587  0.76927  Biso   1.000  H
  H140     1.0000 0.96063  0.63157  0.74667  Biso   1.000  H
  O103     1.0000 0.98503  0.54777  0.93837  Biso   1.000  O
  C181     1.0000 0.01063  0.61317  0.82767  Biso   1.000  C
  O104     1.0000 0.92653  0.56707  0.92187  Biso   1.000  O
  C182     1.0000 0.04413  0.64577  0.81167  Biso   1.000  C
  H141     1.0000 0.06933  0.68247  0.81427  Biso   1.000  H
  O105     1.0000 0.09673  0.60617  0.84980  Biso   1.000  O
  C183     1.0000 0.04113  0.62497  0.79157  Biso   1.000  C
  C184     1.0000 0.00183  0.56827  0.78747  Biso   1.000  C
  H142     1.0000 0.99993  0.55397  0.77427  Biso   1.000  H
  C185     1.0000 0.96693  0.53477  0.80286  Biso   1.000  C
  O106     1.0000 0.86113  0.34227  0.89147  Biso   1.000  O
  C186     1.0000 0.97053  0.55907  0.82287  Biso   1.000  C
  O107     1.0000 0.88483  0.34057  0.88837  Biso   1.000  O
  C187     1.0000 0.07603  0.66247  0.77377  Biso   1.000  C
  C188     1.0000 0.88313  0.52797  0.83747  Biso   1.000  C
  H143     1.0000 0.89083  0.56447  0.84067  Biso   1.000  H
  H144     1.0000 0.85773  0.50277  0.84757  Biso   1.000  H
  H145     1.0000 0.86733  0.51777  0.82377  Biso   1.000  H
  O108     1.0000 0.23883  0.63817  0.82287  Biso   1.000  O
  C189     1.0000 0.92343  0.47547  0.79847  Biso   1.000  C
  H146     1.0000 0.88763  0.47267  0.79907  Biso   1.000  H
  H147     1.0000 0.92853  0.46657  0.78427  Biso   1.000  H
  O109     1.0000 0.23753  0.62387  0.81667  Biso   1.000  O
  C190     1.0000 0.92333  0.43317  0.81293  Biso   1.000  C
  O110     1.0000 0.18463  0.68127  0.79347  Biso   1.000  O
  C191     1.0000 0.87353  0.39587  0.82177  Biso   1.000  C
  H148     1.0000 0.84243  0.39837  0.81877  Biso   1.000  H
  O111     1.0000 0.17963  0.69237  0.79997  Biso   1.000  O
  C192     1.0000 0.86893  0.35367  0.83553  Biso   1.000  C
  C193     1.0000 0.91653  0.35177  0.83987  Biso   1.000  C
  H149     1.0000 0.91443  0.32477  0.84877  Biso   1.000  H
  C194     1.0000 0.96563  0.38807  0.83137  Biso   1.000  C
  C195     1.0000 0.97013  0.42777  0.81712  Biso   1.000  C
  C196     1.0000 0.80983  0.31377  0.84347  Biso   1.000  C
  C197     1.0000 0.02073  0.43757  0.78727  Biso   1.000  C
  H150     1.0000 0.01313  0.40067  0.78967  Biso   1.000  H
  H151     1.0000 0.05693  0.45917  0.78157  Biso   1.000  H
  H152     1.0000 0.99423  0.43707  0.77767  Biso   1.000  H
  C198     1.0000 0.01573  0.38287  0.83627  Biso   1.000  C
  H153     1.0000 0.02443  0.36867  0.82387  Biso   1.000  H
  H154     1.0000 0.00573  0.35547  0.84717  Biso   1.000  H
  C199     1.0000 0.06853  0.43517  0.84317  Biso   1.000  C
  C200     1.0000 0.11973  0.45297  0.83427  Biso   1.000  C
  H155     1.0000 0.12133  0.43317  0.82297  Biso   1.000  H
  C201     1.0000 0.16753  0.49667  0.84057  Biso   1.000  C
  C202     1.0000 0.16573  0.52807  0.85537  Biso   1.000  C
  H156     1.0000 0.19783  0.55997  0.85917  Biso   1.000  H
  C203     1.0000 0.11353  0.51387  0.86617  Biso   1.000  C
  C204     1.0000 0.06803  0.46697  0.85957  Biso   1.000  C
  C205     1.0000 0.22443  0.51127  0.82807  Biso   1.000  C
  C206     1.0000 0.01343  0.41427  0.88807  Biso   1.000  C
  H157     1.0000 0.03293  0.39487  0.88567  Biso   1.000  H
  H158     1.0000 0.97513  0.38837  0.89007  Biso   1.000  H
  H159     1.0000 0.02773  0.43687  0.90027  Biso   1.000  H
  C207     1.0000 0.11363  0.54727  0.88407  Biso   1.000  C
  H160     1.0000 0.14963  0.57997  0.88487  Biso   1.000  H
  H161     1.0000 0.10853  0.52637  0.89677  Biso   1.000  H
  C208     1.0000 0.07103  0.56497  0.88363  Biso   1.000  C
  C209     1.0000 0.03873  0.55587  0.90104  Biso   1.000  C
  H162     1.0000 0.04423  0.53877  0.91247  Biso   1.000  H
  C210     1.0000 0.99833  0.57087  0.90267  Biso   1.000  C
  Rb18     1.0000 0.11691  0.80789  0.79505  Biso   1.000  Rb
  C211     1.0000 0.99163  0.59647  0.88526  Biso   1.000  C
  H163     1.0000 0.96453  0.60627  0.88547  Biso   1.000  H
  C212     1.0000 0.02403  0.60807  0.86742  Biso   1.000  C
  C213     1.0000 0.06093  0.59187  0.86707  Biso   1.000  C
  C214     1.0000 0.96993  0.56017  0.92187  Biso   1.000  C
  C215     1.0000 0.14713  0.66057  0.85097  Biso   1.000  C
  H164     1.0000 0.13773  0.68887  0.84967  Biso   1.000  H
  H165     1.0000 0.17163  0.66387  0.83987  Biso   1.000  H
  H166     1.0000 0.16483  0.66417  0.86417  Biso   1.000  H
  C216     1.0000 0.01513  0.63677  0.84857  Biso   1.000  C
  H167     1.0000 0.98193  0.63827  0.85107  Biso   1.000  H
  H168     1.0000 0.04543  0.67437  0.84827  Biso   1.000  H
  Rb19     1.0000 0.09890  0.88614  0.14256  Biso   1.000  Rb
  O112     1.0000 0.81350  0.54000  0.10710  Biso   1.000  O
  C217     1.0000 0.97410  0.55280  0.06864  Biso   1.000  C
  Rb20     1.0000 0.21128  0.79922  0.20662  Biso   1.000  Rb
  O113     1.0000 0.78200  0.46510  0.09320  Biso   1.000  O
  C218     1.0000 0.97070  0.58410  0.08470  Biso   1.000  C
  Rb21     1.0000 0.91443  0.45933  0.11973  Biso   1.000  Rb
  O114     1.0000 0.02390  0.57000  0.05788  Biso   1.000  O
  C219     1.0000 0.92350  0.56910  0.09300  Biso   1.000  C
  H169     1.0000 0.92220  0.59120  0.10360  Biso   1.000  H
  Rb22     1.0000 0.12477  0.56143  0.06157  Biso   1.000  Rb
  O115     1.0000 0.07910  0.46460  0.00050  Biso   1.000  O
  C220     1.0000 0.87200  0.52010  0.08720  Biso   1.000  C
  Rb23     1.0000 0.85510  0.62750  0.13378  Biso   1.000  Rb
  O116     1.0000 0.11710  0.42760  0.02060  Biso   1.000  O
  C221     1.0000 0.87740  0.48880  0.07131  Biso   1.000  C
  H170     1.0000 0.84660  0.45630  0.06700  Biso   1.000  H
  O117     1.0000 0.93610  0.41430  0.08209  Biso   1.000  O
  C222     1.0000 0.92900  0.50570  0.06142  Biso   1.000  C
  O118     1.0000 0.89700  0.32350  0.15760  Biso   1.000  O
  C223     1.0000 0.81990  0.50610  0.09650  Biso   1.000  C
  O119     1.0000 0.94620  0.40470  0.17710  Biso   1.000  O
  C224     1.0000 0.03240  0.60690  0.04070  Biso   1.000  C
  H171     1.0000 0.04830  0.64380  0.04590  Biso   1.000  H
  H172     1.0000 0.05670  0.60490  0.03070  Biso   1.000  H
  H173     1.0000 0.99790  0.59660  0.03420  Biso   1.000  H
  O120     1.0000 0.09690  0.49160  0.09930  Biso   1.000  O
  C225     1.0000 0.93040  0.46710  0.04500  Biso   1.000  C
  H174     1.0000 0.93670  0.48480  0.03150  Biso   1.000  H
  H175     1.0000 0.89460  0.43420  0.04450  Biso   1.000  H
  O121     1.0000 0.26290  0.70640  0.09710  Biso   1.000  O
  C226     1.0000 0.97280  0.45030  0.04820  Biso   1.000  C
  O122     1.0000 0.23260  0.74410  0.07580  Biso   1.000  O
  C227     1.0000 0.00680  0.45580  0.03310  Biso   1.000  C
  H176     1.0000 0.00530  0.47190  0.02070  Biso   1.000  H
  O123     1.0000 0.01320  0.56380  0.12384  Biso   1.000  O
  C228     1.0000 0.04620  0.43800  0.03520  Biso   1.000  C
  C229     1.0000 0.04780  0.41430  0.05430  Biso   1.000  C
  H177     1.0000 0.07290  0.40230  0.05630  Biso   1.000  H
  C230     1.0000 0.01210  0.40900  0.07010  Biso   1.000  C
  C231     1.0000 0.97270  0.42380  0.06750  Biso   1.000  C
  C232     1.0000 0.08460  0.44490  0.01570  Biso   1.000  C
  C233     1.0000 0.88920  0.36090  0.07800  Biso   1.000  C
  H178     1.0000 0.89420  0.33320  0.08470  Biso   1.000  H
  H179     1.0000 0.85660  0.35960  0.08320  Biso   1.000  H
  H180     1.0000 0.88570  0.35430  0.06320  Biso   1.000  H
  O124     1.0000 0.80800  0.37800  0.11320  Biso   1.000  O
  C234     1.0000 0.01230  0.38020  0.09120  Biso   1.000  C
  H181     1.0000 0.04300  0.37360  0.09060  Biso   1.000  H
  H182     1.0000 0.97910  0.34440  0.09140  Biso   1.000  H
  O125     1.0000 0.97800  0.84100  0.29730  Biso   1.000  O
  C235     1.0000 0.01560  0.40750  0.11140  Biso   1.000  C
  C236     1.0000 0.97780  0.38090  0.12560  Biso   1.000  C
  H183     1.0000 0.94880  0.34590  0.12270  Biso   1.000  H
  C237     1.0000 0.98060  0.40390  0.14440  Biso   1.000  C
  C238     1.0000 0.02570  0.46280  0.14470  Biso   1.000  C
  H184     1.0000 0.02670  0.48050  0.15710  Biso   1.000  H
  O126     1.0000 0.76740  0.60110  0.12740  Biso   1.000  O
  C239     1.0000 0.06260  0.49380  0.13200  Biso   1.000  C
  O127     1.0000 0.89000  0.73340  0.15550  Biso   1.000  O
  C240     1.0000 0.06070  0.46420  0.11390  Biso   1.000  C
  O128     1.0000 0.86890  0.72390  0.15720  Biso   1.000  O
  C241     1.0000 0.93640  0.36990  0.16030  Biso   1.000  C
  O129     1.0000 0.95390  0.72310  0.11022  Biso   1.000  O
  C242     1.0000 0.14390  0.48560  0.10410  Biso   1.000  C
  H185     1.0000 0.14660  0.46170  0.09410  Biso   1.000  H
  H186     1.0000 0.17680  0.52100  0.10370  Biso   1.000  H
  H187     1.0000 0.13970  0.47020  0.11780  Biso   1.000  H
  O130     1.0000 0.02830  0.77030  0.09020  Biso   1.000  O
  C243     1.0000 0.10030  0.54880  0.13790  Biso   1.000  C
  H188     1.0000 0.08710  0.55730  0.15050  Biso   1.000  H
  H189     1.0000 0.13540  0.55180  0.14100  Biso   1.000  H
  O131     1.0000 0.03500  0.80500  0.08970  Biso   1.000  O
  C244     1.0000 0.10900  0.59240  0.12080  Biso   1.000  C
  O132     1.0000 0.14070  0.73970  0.17148  Biso   1.000  O
  C245     1.0000 0.16140  0.63290  0.11130  Biso   1.000  C
  H190     1.0000 0.19310  0.63250  0.11520  Biso   1.000  H
  O133     1.0000 0.35230  0.79160  0.16910  Biso   1.000  O
  C246     1.0000 0.16580  0.66820  0.09810  Biso   1.000  C
  O134     1.0000 0.39100  0.85480  0.19110  Biso   1.000  O
  C247     1.0000 0.12610  0.66890  0.09240  Biso   1.000  C
  H191     1.0000 0.13090  0.69490  0.08230  Biso   1.000  H
  O135     1.0000 0.39000  0.87280  0.18890  Biso   1.000  O
  C248     1.0000 0.06830  0.63110  0.10000  Biso   1.000  C
  O136     1.0000 0.20520  0.88910  0.14028  Biso   1.000  O
  C249     1.0000 0.06310  0.59600  0.11490  Biso   1.000  C
  O137     1.0000 0.18500  0.07410  0.14800  Biso   1.000  O
  C250     1.0000 0.22620  0.71260  0.08960  Biso   1.000  C
  O138     1.0000 0.11110  0.04350  0.17120  Biso   1.000  O
  C251     1.0000 0.00740  0.59230  0.14060  Biso   1.000  C
  H192     1.0000 0.01930  0.62940  0.13650  Biso   1.000  H
  H193     1.0000 0.96950  0.57460  0.14470  Biso   1.000  H
  H194     1.0000 0.02930  0.59240  0.15210  Biso   1.000  H
  O139     1.0000 0.21780  0.90450  0.20338  Biso   1.000  O
  C252     1.0000 0.02180  0.63730  0.09180  Biso   1.000  C
  H195     1.0000 0.01080  0.65410  0.10260  Biso   1.000  H
  H196     1.0000 0.03510  0.66240  0.08000  Biso   1.000  H
  O140     1.0000 0.11890  0.77060  0.27170  Biso   1.000  O
  C253     1.0000 0.05350  0.73080  0.16100  Biso   1.000  C
  O141     1.0000 0.09960  0.69280  0.25520  Biso   1.000  O
  C254     1.0000 0.02090  0.73170  0.14500  Biso   1.000  C
  H197     1.0000 0.98420  0.72020  0.14760  Biso   1.000  H
  O142     1.0000 0.06050  0.82390  0.18313  Biso   1.000  O
  C255     1.0000 0.04170  0.74950  0.12490  Biso   1.000  C
  C256     1.0000 0.09840  0.76690  0.12080  Biso   1.000  C
  H198     1.0000 0.11270  0.77930  0.10760  Biso   1.000  H
  C257     1.0000 0.13190  0.76550  0.13619  Biso   1.000  C
  O143     1.0000 0.32440  0.85220  0.22480  Biso   1.000  O
  C258     1.0000 0.10760  0.74480  0.15620  Biso   1.000  C
  O144     1.0000 0.32610  0.87760  0.22170  Biso   1.000  O
  C259     1.0000 0.00420  0.74690  0.10710  Biso   1.000  C
  C260     1.0000 0.13870  0.68850  0.17080  Biso   1.000  C
  H199     1.0000 0.10220  0.65970  0.17400  Biso   1.000  H
  H200     1.0000 0.16390  0.68830  0.18090  Biso   1.000  H
  H201     1.0000 0.14890  0.68290  0.15710  Biso   1.000  H
  O145     1.0000 0.02850  0.93400  0.15620  Biso   1.000  O
  C261     1.0000 0.19120  0.78130  0.13180  Biso   1.000  C
  H202     1.0000 0.19400  0.74830  0.13240  Biso   1.000  H
  H203     1.0000 0.20010  0.79530  0.11760  Biso   1.000  H
  O146     1.0000 0.04280  0.94700  0.15000  Biso   1.000  O
  C262     1.0000 0.23350  0.82350  0.14626  Biso   1.000  C
  O147     1.0000 0.98540  0.83670  0.12680  Biso   1.000  O
  C263     1.0000 0.27080  0.81100  0.15510  Biso   1.000  C
  H204     1.0000 0.26830  0.77740  0.15210  Biso   1.000  H
  O148     1.0000 0.97430  0.82060  0.13330  Biso   1.000  O
  C264     1.0000 0.31300  0.84860  0.16886  Biso   1.000  C
  C265     1.0000 0.31490  0.89810  0.17320  Biso   1.000  C
  H205     1.0000 0.34190  0.92300  0.18210  Biso   1.000  H
  C266     1.0000 0.27860  0.91090  0.16470  Biso   1.000  C
  C267     1.0000 0.23890  0.87570  0.15045  Biso   1.000  C
  C268     1.0000 0.35290  0.82940  0.17680  Biso   1.000  C
  C269     1.0000 0.22910  0.91650  0.12060  Biso   1.000  C
  H206     1.0000 0.26600  0.94580  0.12300  Biso   1.000  H
  H207     1.0000 0.20750  0.93110  0.11490  Biso   1.000  H
  H208     1.0000 0.22960  0.89050  0.11100  Biso   1.000  H
  C270     1.0000 0.28380  0.96620  0.16960  Biso   1.000  C
  H209     1.0000 0.29800  0.98910  0.15720  Biso   1.000  H
  H210     1.0000 0.31120  0.98360  0.18050  Biso   1.000  H
  C271     1.0000 0.23150  0.96670  0.17650  Biso   1.000  C
  C272     1.0000 0.21370  0.00010  0.16760  Biso   1.000  C
  H211     1.0000 0.23350  0.02150  0.15630  Biso   1.000  H
  C273     1.0000 0.17000  0.00420  0.17390  Biso   1.000  C
  C274     1.0000 0.13860  0.97100  0.18870  Biso   1.000  C
  H212     1.0000 0.10670  0.97120  0.19250  Biso   1.000  H
  C275     1.0000 0.15280  0.93300  0.19950  Biso   1.000  C
  C276     1.0000 0.19970  0.93440  0.19290  Biso   1.000  C
  C277     1.0000 0.15540  0.04650  0.16140  Biso   1.000  C
  C278     1.0000 0.25240  0.93250  0.22140  Biso   1.000  C
  H213     1.0000 0.27180  0.97140  0.21900  Biso   1.000  H
  H214     1.0000 0.27830  0.92010  0.22340  Biso   1.000  H
  H215     1.0000 0.22980  0.92420  0.23360  Biso   1.000  H
  C279     1.0000 0.11940  0.89970  0.21740  Biso   1.000  C
  H216     1.0000 0.08670  0.90300  0.21820  Biso   1.000  H
  H217     1.0000 0.14030  0.91550  0.23010  Biso   1.000  H
  C280     1.0000 0.10170  0.83940  0.21696  Biso   1.000  C
  C281     1.0000 0.11080  0.81620  0.23437  Biso   1.000  C
  H218     1.0000 0.12790  0.83880  0.24580  Biso   1.000  H
  C282     1.0000 0.09580  0.76080  0.23600  Biso   1.000  C
  Rb24     1.0000 0.85878  0.64236  0.12838  Biso   1.000  Rb
  C283     1.0000 0.07020  0.72850  0.21859  Biso   1.000  C
  H219     1.0000 0.06040  0.69160  0.21880  Biso   1.000  H
  C284     1.0000 0.05860  0.74930  0.20075  Biso   1.000  C
  C285     1.0000 0.07480  0.80240  0.20040  Biso   1.000  C
  C286     1.0000 0.10650  0.74310  0.25520  Biso   1.000  C
  C287     1.0000 0.00610  0.81990  0.18430  Biso   1.000  C
  H220     1.0000 0.97780  0.78220  0.18300  Biso   1.000  H
  H221     1.0000 0.00280  0.84110  0.17320  Biso   1.000  H
  H222     1.0000 0.00250  0.83400  0.19750  Biso   1.000  H
  C288     1.0000 0.02990  0.71170  0.18190  Biso   1.000  C
  H223     1.0000 0.02840  0.67700  0.18440  Biso   1.000  H
  H224     1.0000 0.99230  0.70440  0.18160  Biso   1.000  H
  Rb25     1.0000 0.76557  0.21947  0.47589  Biso   1.000  Rb
  O149     1.0000 0.48017  0.87333  0.44043  Biso   1.000  O
  C289     1.0000 0.64077  0.88613  0.40197  Biso   1.000  C
  Rb26     1.0000 0.87795  0.13255  0.53995  Biso   1.000  Rb
  O150     1.0000 0.44867  0.79843  0.42653  Biso   1.000  O
  C290     1.0000 0.63737  0.91743  0.41803  Biso   1.000  C
  Rb27     1.0000 0.58110  0.79266  0.45306  Biso   1.000  Rb
  O151     1.0000 0.69057  0.90333  0.39121  Biso   1.000  O
  C291     1.0000 0.59017  0.90243  0.42633  Biso   1.000  C
  H225     1.0000 0.58887  0.92453  0.43693  Biso   1.000  H
  Rb28     1.0000 0.79144  0.89476  0.39490  Biso   1.000  Rb
  O152     1.0000 0.74577  0.79793  0.33383  Biso   1.000  O
  C292     1.0000 0.53867  0.85343  0.42053  Biso   1.000  C
  Rb29     1.0000 0.52177  0.96083  0.46711  Biso   1.000  Rb
  O153     1.0000 0.78377  0.76093  0.35393  Biso   1.000  O
  C293     1.0000 0.54407  0.82213  0.40464  Biso   1.000  C
  H226     1.0000 0.51327  0.78963  0.40033  Biso   1.000  H
  O154     1.0000 0.60277  0.74763  0.41542  Biso   1.000  O
  C294     1.0000 0.59567  0.83903  0.39475  Biso   1.000  C
  O155     1.0000 0.56367  0.65683  0.49093  Biso   1.000  O
  C295     1.0000 0.48657  0.83943  0.42983  Biso   1.000  C
  O156     1.0000 0.61287  0.73803  0.51043  Biso   1.000  O
  C296     1.0000 0.69907  0.94023  0.37403  Biso   1.000  C
  H227     1.0000 0.71497  0.97713  0.37923  Biso   1.000  H
  H228     1.0000 0.72337  0.93823  0.36403  Biso   1.000  H
  H229     1.0000 0.66457  0.92993  0.36753  Biso   1.000  H
  O157     1.0000 0.76357  0.82493  0.43263  Biso   1.000  O
  C297     1.0000 0.59707  0.80043  0.37833  Biso   1.000  C
  H230     1.0000 0.60337  0.81813  0.36483  Biso   1.000  H
  H231     1.0000 0.56127  0.76753  0.37783  Biso   1.000  H
  O158     1.0000 0.92957  0.03973  0.43043  Biso   1.000  O
  C298     1.0000 0.63947  0.78363  0.38153  Biso   1.000  C
  O159     1.0000 0.89927  0.07743  0.40913  Biso   1.000  O
  C299     1.0000 0.67347  0.78913  0.36643  Biso   1.000  C
  H232     1.0000 0.67197  0.80523  0.35403  Biso   1.000  H
  O160     1.0000 0.67987  0.89713  0.45717  Biso   1.000  O
  C300     1.0000 0.71287  0.77133  0.36853  Biso   1.000  C
  C301     1.0000 0.71447  0.74763  0.38763  Biso   1.000  C
  H233     1.0000 0.73957  0.73563  0.38963  Biso   1.000  H
  C302     1.0000 0.67877  0.74233  0.40343  Biso   1.000  C
  C303     1.0000 0.63937  0.75713  0.40083  Biso   1.000  C
  C304     1.0000 0.75127  0.77823  0.34903  Biso   1.000  C
  C305     1.0000 0.55587  0.69423  0.41133  Biso   1.000  C
  H234     1.0000 0.56087  0.66653  0.41803  Biso   1.000  H
  H235     1.0000 0.52327  0.69293  0.41653  Biso   1.000  H
  H236     1.0000 0.55237  0.68763  0.39653  Biso   1.000  H
  O161     1.0000 0.47467  0.71133  0.44653  Biso   1.000  O
  C306     1.0000 0.67897  0.71353  0.42453  Biso   1.000  C
  H237     1.0000 0.70967  0.70693  0.42393  Biso   1.000  H
  H238     1.0000 0.64577  0.67773  0.42473  Biso   1.000  H
  O162     1.0000 0.64467  0.17433  0.63063  Biso   1.000  O
  C307     1.0000 0.68227  0.74083  0.44473  Biso   1.000  C
  C308     1.0000 0.64447  0.71423  0.45893  Biso   1.000  C
  H239     1.0000 0.61547  0.67923  0.45603  Biso   1.000  H
  C309     1.0000 0.64727  0.73723  0.47773  Biso   1.000  C
  C310     1.0000 0.69237  0.79613  0.47803  Biso   1.000  C
  H240     1.0000 0.69337  0.81383  0.49043  Biso   1.000  H
  O163     1.0000 0.43407  0.93443  0.46073  Biso   1.000  O
  C311     1.0000 0.72927  0.82713  0.46533  Biso   1.000  C
  O164     1.0000 0.55667  0.06673  0.48883  Biso   1.000  O
  C312     1.0000 0.72737  0.79753  0.44723  Biso   1.000  C
  O165     1.0000 0.53557  0.05723  0.49053  Biso   1.000  O
  C313     1.0000 0.60307  0.70323  0.49363  Biso   1.000  C
  O166     1.0000 0.62057  0.05643  0.44355  Biso   1.000  O
  C314     1.0000 0.81057  0.81893  0.43743  Biso   1.000  C
  H241     1.0000 0.81327  0.79503  0.42743  Biso   1.000  H
  H242     1.0000 0.84347  0.85433  0.43703  Biso   1.000  H
  H243     1.0000 0.80637  0.80353  0.45113  Biso   1.000  H
  O167     1.0000 0.69497  0.10363  0.42353  Biso   1.000  O
  C315     1.0000 0.76697  0.88213  0.47123  Biso   1.000  C
  H244     1.0000 0.75377  0.89063  0.48383  Biso   1.000  H
  H245     1.0000 0.80207  0.88513  0.47433  Biso   1.000  H
  O168     1.0000 0.70167  0.13833  0.42303  Biso   1.000  O
  C316     1.0000 0.77567  0.92573  0.45413  Biso   1.000  C
  O169     1.0000 0.80737  0.07303  0.50481  Biso   1.000  O
  C317     1.0000 0.82807  0.96623  0.44463  Biso   1.000  C
  H246     1.0000 0.85977  0.96583  0.44853  Biso   1.000  H
  O170     1.0000 0.01897  0.12493  0.50243  Biso   1.000  O
  C318     1.0000 0.83247  0.00153  0.43143  Biso   1.000  C
  O171     1.0000 0.05767  0.18813  0.52443  Biso   1.000  O
  C319     1.0000 0.79277  0.00223  0.42573  Biso   1.000  C
  H247     1.0000 0.79757  0.02823  0.41563  Biso   1.000  H
  O172     1.0000 0.05667  0.20613  0.52223  Biso   1.000  O
  C320     1.0000 0.73497  0.96443  0.43333  Biso   1.000  C
  O173     1.0000 0.87187  0.22243  0.47361  Biso   1.000  O
  C321     1.0000 0.72977  0.92933  0.44823  Biso   1.000  C
  O174     1.0000 0.85167  0.40743  0.48133  Biso   1.000  O
  C322     1.0000 0.89287  0.04593  0.42293  Biso   1.000  C
  O175     1.0000 0.77777  0.37683  0.50453  Biso   1.000  O
  C323     1.0000 0.67407  0.92563  0.47393  Biso   1.000  C
  H248     1.0000 0.68597  0.96273  0.46983  Biso   1.000  H
  H249     1.0000 0.63617  0.90793  0.47803  Biso   1.000  H
  H250     1.0000 0.69597  0.92573  0.48543  Biso   1.000  H
  O176     1.0000 0.88447  0.23783  0.53671  Biso   1.000  O
  C324     1.0000 0.68847  0.97063  0.42513  Biso   1.000  C
  H251     1.0000 0.67747  0.98743  0.43593  Biso   1.000  H
  H252     1.0000 0.70177  0.99573  0.41333  Biso   1.000  H
  O177     1.0000 0.78557  0.10393  0.60503  Biso   1.000  O
  C325     1.0000 0.72017  0.06413  0.49433  Biso   1.000  C
  O178     1.0000 0.76627  0.02613  0.58853  Biso   1.000  O
  C326     1.0000 0.68757  0.06503  0.47833  Biso   1.000  C
  H253     1.0000 0.65087  0.05353  0.48093  Biso   1.000  H
  O179     1.0000 0.72717  0.15723  0.51646  Biso   1.000  O
  C327     1.0000 0.70837  0.08283  0.45823  Biso   1.000  C
  C328     1.0000 0.76507  0.10023  0.45413  Biso   1.000  C
  H254     1.0000 0.77937  0.11263  0.44093  Biso   1.000  H
  C329     1.0000 0.79857  0.09883  0.46952  Biso   1.000  C
  O180     1.0000 0.99107  0.18553  0.55813  Biso   1.000  O
  C330     1.0000 0.77427  0.07813  0.48953  Biso   1.000  C
  O181     1.0000 0.99277  0.21093  0.55503  Biso   1.000  O
  C331     1.0000 0.67087  0.08023  0.44043  Biso   1.000  C
  C332     1.0000 0.80537  0.02183  0.50413  Biso   1.000  C
  H255     1.0000 0.76887  0.99303  0.50733  Biso   1.000  H
  H256     1.0000 0.83057  0.02163  0.51423  Biso   1.000  H
  H257     1.0000 0.81557  0.01623  0.49043  Biso   1.000  H
  O182     1.0000 0.69517  0.26733  0.48953  Biso   1.000  O
  C333     1.0000 0.85787  0.11463  0.46513  Biso   1.000  C
  H258     1.0000 0.86067  0.08163  0.46573  Biso   1.000  H
  H259     1.0000 0.86677  0.12863  0.45093  Biso   1.000  H
  O183     1.0000 0.70947  0.28033  0.48333  Biso   1.000  O
  C334     1.0000 0.90017  0.15683  0.47959  Biso   1.000  C
  O184     1.0000 0.65207  0.17003  0.46013  Biso   1.000  O
  C335     1.0000 0.93747  0.14433  0.48843  Biso   1.000  C
  H260     1.0000 0.93497  0.11073  0.48543  Biso   1.000  H
  O185     1.0000 0.64097  0.15393  0.46663  Biso   1.000  O
  C336     1.0000 0.97967  0.18193  0.50219  Biso   1.000  C
  C337     1.0000 0.98157  0.23143  0.50653  Biso   1.000  C
  H261     1.0000 0.00857  0.25633  0.51543  Biso   1.000  H
  C338     1.0000 0.94527  0.24423  0.49803  Biso   1.000  C
  C339     1.0000 0.90557  0.20903  0.48378  Biso   1.000  C
  C340     1.0000 0.01957  0.16273  0.51013  Biso   1.000  C
  C341     1.0000 0.89577  0.24983  0.45393  Biso   1.000  C
  H262     1.0000 0.93267  0.27913  0.45633  Biso   1.000  H
  H263     1.0000 0.87417  0.26443  0.44823  Biso   1.000  H
  H264     1.0000 0.89627  0.22383  0.44433  Biso   1.000  H
  C342     1.0000 0.95047  0.29953  0.50293  Biso   1.000  C
  H265     1.0000 0.96467  0.32243  0.49053  Biso   1.000  H
  H266     1.0000 0.97787  0.31693  0.51383  Biso   1.000  H
  C343     1.0000 0.89817  0.30003  0.50983  Biso   1.000  C
  C344     1.0000 0.88037  0.33343  0.50093  Biso   1.000  C
  H267     1.0000 0.90017  0.35483  0.48963  Biso   1.000  H
  C345     1.0000 0.83667  0.33753  0.50723  Biso   1.000  C
  C346     1.0000 0.80527  0.30433  0.52203  Biso   1.000  C
  H268     1.0000 0.77337  0.30453  0.52583  Biso   1.000  H
  C347     1.0000 0.81947  0.26633  0.53283  Biso   1.000  C
  C348     1.0000 0.86637  0.26773  0.52623  Biso   1.000  C
  C349     1.0000 0.82207  0.37983  0.49473  Biso   1.000  C
  C350     1.0000 0.91907  0.26583  0.55473  Biso   1.000  C
  H269     1.0000 0.93847  0.30473  0.55233  Biso   1.000  H
  H270     1.0000 0.94497  0.25343  0.55673  Biso   1.000  H
  H271     1.0000 0.89647  0.25753  0.56693  Biso   1.000  H
  C351     1.0000 0.78607  0.23303  0.55073  Biso   1.000  C
  H272     1.0000 0.75337  0.23633  0.55153  Biso   1.000  H
  H273     1.0000 0.80697  0.24883  0.56343  Biso   1.000  H
  C352     1.0000 0.76837  0.17273  0.55029  Biso   1.000  C
  C353     1.0000 0.77747  0.14953  0.56770  Biso   1.000  C
  H274     1.0000 0.79457  0.17213  0.57913  Biso   1.000  H
  C354     1.0000 0.76247  0.09413  0.56933  Biso   1.000  C
  Rb30     1.0000 0.52545  0.97569  0.46171  Biso   1.000  Rb
  C355     1.0000 0.73687  0.06183  0.55192  Biso   1.000  C
  H275     1.0000 0.72707  0.02493  0.55213  Biso   1.000  H
  C356     1.0000 0.72527  0.08263  0.53408  Biso   1.000  C
  C357     1.0000 0.74147  0.13573  0.53373  Biso   1.000  C
  C358     1.0000 0.77317  0.07643  0.58853  Biso   1.000  C
  C359     1.0000 0.67277  0.15323  0.51763  Biso   1.000  C
  H276     1.0000 0.64447  0.11553  0.51633  Biso   1.000  H
  H277     1.0000 0.66947  0.17443  0.50653  Biso   1.000  H
  H278     1.0000 0.66917  0.16733  0.53083  Biso   1.000  H
  C360     1.0000 0.69657  0.04503  0.51523  Biso   1.000  C
  H279     1.0000 0.69507  0.01033  0.51773  Biso   1.000  H
  H280     1.0000 0.65897  0.03773  0.51493  Biso   1.000  H
  Rb31     1.0000 0.43223  0.55281  0.80923  Biso   1.000  Rb
  O186     1.0000 0.14683  0.20667  0.77377  Biso   1.000  O
  C361     1.0000 0.30743  0.21947  0.73531  Biso   1.000  C
  Rb32     1.0000 0.54461  0.46589  0.87329  Biso   1.000  Rb
  O187     1.0000 0.11533  0.13177  0.75987  Biso   1.000  O
  C362     1.0000 0.30403  0.25077  0.75137  Biso   1.000  C
  Rb33     1.0000 0.24776  0.12600  0.78640  Biso   1.000  Rb
  O188     1.0000 0.35723  0.23667  0.72455  Biso   1.000  O
  C363     1.0000 0.25683  0.23577  0.75967  Biso   1.000  C
  H281     1.0000 0.25553  0.25787  0.77027  Biso   1.000  H
  Rb34     1.0000 0.45810  0.22810  0.72824  Biso   1.000  Rb
  O189     1.0000 0.41243  0.13127  0.66717  Biso   1.000  O
  C364     1.0000 0.20533  0.18677  0.75387  Biso   1.000  C
  Rb35     1.0000 0.18843  0.29417  0.80045  Biso   1.000  Rb
  O190     1.0000 0.45043  0.09427  0.68727  Biso   1.000  O
  C365     1.0000 0.21073  0.15547  0.73798  Biso   1.000  C
  H282     1.0000 0.17993  0.12297  0.73367  Biso   1.000  H
  O191     1.0000 0.26943  0.08097  0.74876  Biso   1.000  O
  C366     1.0000 0.26233  0.17237  0.72809  Biso   1.000  C
  O192     1.0000 0.23033  0.99017  0.82427  Biso   1.000  O
  C367     1.0000 0.15323  0.17277  0.76317  Biso   1.000  C
  O193     1.0000 0.27953  0.07137  0.84377  Biso   1.000  O
  C368     1.0000 0.36573  0.27357  0.70737  Biso   1.000  C
  H283     1.0000 0.38163  0.31047  0.71257  Biso   1.000  H
  H284     1.0000 0.39003  0.27157  0.69737  Biso   1.000  H
  H285     1.0000 0.33123  0.26327  0.70087  Biso   1.000  H
  O194     1.0000 0.43023  0.15827  0.76597  Biso   1.000  O
  C369     1.0000 0.26373  0.13377  0.71167  Biso   1.000  C
  H286     1.0000 0.27003  0.15147  0.69817  Biso   1.000  H
  H287     1.0000 0.22793  0.10087  0.71117  Biso   1.000  H
  O195     1.0000 0.59623  0.37307  0.76377  Biso   1.000  O
  C370     1.0000 0.30613  0.11697  0.71487  Biso   1.000  C
  O196     1.0000 0.56593  0.41077  0.74247  Biso   1.000  O
  C371     1.0000 0.34013  0.12247  0.69977  Biso   1.000  C
  H288     1.0000 0.33863  0.13857  0.68737  Biso   1.000  H
  O197     1.0000 0.34653  0.23047  0.79051  Biso   1.000  O
  C372     1.0000 0.37953  0.10467  0.70187  Biso   1.000  C
  C373     1.0000 0.38113  0.08097  0.72097  Biso   1.000  C
  H289     1.0000 0.40623  0.06897  0.72297  Biso   1.000  H
  C374     1.0000 0.34543  0.07567  0.73677  Biso   1.000  C
  C375     1.0000 0.30603  0.09047  0.73417  Biso   1.000  C
  C376     1.0000 0.41793  0.11157  0.68237  Biso   1.000  C
  C377     1.0000 0.22253  0.02757  0.74467  Biso   1.000  C
  H290     1.0000 0.22753  0.99987  0.75137  Biso   1.000  H
  H291     1.0000 0.18993  0.02627  0.74987  Biso   1.000  H
  H292     1.0000 0.21903  0.02097  0.72987  Biso   1.000  H
  O198     1.0000 0.14133  0.04467  0.77987  Biso   1.000  O
  C378     1.0000 0.34563  0.04687  0.75787  Biso   1.000  C
  H293     1.0000 0.37633  0.04027  0.75727  Biso   1.000  H
  H294     1.0000 0.31243  0.01107  0.75807  Biso   1.000  H
  O199     1.0000 0.31133  0.50767  0.96397  Biso   1.000  O
  C379     1.0000 0.34893  0.07417  0.77807  Biso   1.000  C
  C380     1.0000 0.31113  0.04757  0.79227  Biso   1.000  C
  H295     1.0000 0.28213  0.01257  0.78937  Biso   1.000  H
  C381     1.0000 0.31393  0.07057  0.81107  Biso   1.000  C
  C382     1.0000 0.35903  0.12947  0.81137  Biso   1.000  C
  H296     1.0000 0.36003  0.14717  0.82377  Biso   1.000  H
  O200     1.0000 0.10073  0.26777  0.79407  Biso   1.000  O
  C383     1.0000 0.39593  0.16047  0.79867  Biso   1.000  C
  O201     1.0000 0.22333  0.40007  0.82217  Biso   1.000  O
  C384     1.0000 0.39403  0.13087  0.78057  Biso   1.000  C
  O202     1.0000 0.20223  0.39057  0.82387  Biso   1.000  O
  C385     1.0000 0.26973  0.03657  0.82697  Biso   1.000  C
  O203     1.0000 0.28723  0.38977  0.77689  Biso   1.000  O
  C386     1.0000 0.47723  0.15227  0.77077  Biso   1.000  C
  H297     1.0000 0.47993  0.12837  0.76077  Biso   1.000  H
  H298     1.0000 0.51013  0.18767  0.77037  Biso   1.000  H
  H299     1.0000 0.47303  0.13687  0.78447  Biso   1.000  H
  O204     1.0000 0.36163  0.43697  0.75687  Biso   1.000  O
  C387     1.0000 0.43363  0.21547  0.80457  Biso   1.000  C
  H300     1.0000 0.42043  0.22397  0.81717  Biso   1.000  H
  H301     1.0000 0.46873  0.21847  0.80767  Biso   1.000  H
  O205     1.0000 0.36833  0.47167  0.75637  Biso   1.000  O
  C388     1.0000 0.44233  0.25907  0.78747  Biso   1.000  C
  O206     1.0000 0.47403  0.40637  0.83815  Biso   1.000  O
  C389     1.0000 0.49473  0.29957  0.77797  Biso   1.000  C
  H302     1.0000 0.52643  0.29917  0.78187  Biso   1.000  H
  O207     1.0000 0.68563  0.45827  0.83577  Biso   1.000  O
  C390     1.0000 0.49913  0.33487  0.76477  Biso   1.000  C
  O208     1.0000 0.72433  0.52147  0.85777  Biso   1.000  O
  C391     1.0000 0.45943  0.33557  0.75907  Biso   1.000  C
  H303     1.0000 0.46423  0.36157  0.74897  Biso   1.000  H
  O209     1.0000 0.72333  0.53947  0.85557  Biso   1.000  O
  C392     1.0000 0.40163  0.29777  0.76667  Biso   1.000  C
  O210     1.0000 0.53853  0.55577  0.80695  Biso   1.000  O
  C393     1.0000 0.39643  0.26267  0.78157  Biso   1.000  C
  O211     1.0000 0.51833  0.74077  0.81467  Biso   1.000  O
  C394     1.0000 0.55953  0.37927  0.75627  Biso   1.000  C
  O212     1.0000 0.44443  0.71017  0.83787  Biso   1.000  O
  C395     1.0000 0.34073  0.25897  0.80727  Biso   1.000  C
  H304     1.0000 0.35263  0.29607  0.80317  Biso   1.000  H
  H305     1.0000 0.30283  0.24127  0.81137  Biso   1.000  H
  H306     1.0000 0.36263  0.25907  0.81877  Biso   1.000  H
  O213     1.0000 0.55113  0.57117  0.87005  Biso   1.000  O
  C396     1.0000 0.35513  0.30397  0.75847  Biso   1.000  C
  H307     1.0000 0.34413  0.32077  0.76927  Biso   1.000  H
  H308     1.0000 0.36843  0.32907  0.74667  Biso   1.000  H
  O214     1.0000 0.45223  0.43727  0.93837  Biso   1.000  O
  C397     1.0000 0.38683  0.39747  0.82767  Biso   1.000  C
  O215     1.0000 0.43293  0.35947  0.92187  Biso   1.000  O
  C398     1.0000 0.35423  0.39837  0.81167  Biso   1.000  C
  H309     1.0000 0.31753  0.38687  0.81427  Biso   1.000  H
  O216     1.0000 0.39383  0.49057  0.84980  Biso   1.000  O
  C399     1.0000 0.37503  0.41617  0.79157  Biso   1.000  C
  C400     1.0000 0.43173  0.43357  0.78747  Biso   1.000  C
  H310     1.0000 0.44603  0.44597  0.77427  Biso   1.000  H
  C401     1.0000 0.46523  0.43217  0.80286  Biso   1.000  C
  O217     1.0000 0.65773  0.51887  0.89147  Biso   1.000  O
  C402     1.0000 0.44093  0.41147  0.82287  Biso   1.000  C
  O218     1.0000 0.65943  0.54427  0.88837  Biso   1.000  O
  C403     1.0000 0.33753  0.41357  0.77377  Biso   1.000  C
  C404     1.0000 0.47203  0.35517  0.83747  Biso   1.000  C
  H311     1.0000 0.43553  0.32637  0.84067  Biso   1.000  H
  H312     1.0000 0.49723  0.35497  0.84757  Biso   1.000  H
  H313     1.0000 0.48223  0.34957  0.82377  Biso   1.000  H
  O219     1.0000 0.36183  0.60067  0.82287  Biso   1.000  O
  C405     1.0000 0.52453  0.44797  0.79847  Biso   1.000  C
  H314     1.0000 0.52733  0.41497  0.79907  Biso   1.000  H
  H315     1.0000 0.53343  0.46197  0.78427  Biso   1.000  H
  O220     1.0000 0.37613  0.61367  0.81667  Biso   1.000  O
  C406     1.0000 0.56683  0.49017  0.81293  Biso   1.000  C
  O221     1.0000 0.31873  0.50337  0.79347  Biso   1.000  O
  C407     1.0000 0.60413  0.47767  0.82177  Biso   1.000  C
  H316     1.0000 0.60163  0.44407  0.81877  Biso   1.000  H
  O222     1.0000 0.30763  0.48727  0.79997  Biso   1.000  O
  C408     1.0000 0.64633  0.51527  0.83553  Biso   1.000  C
  C409     1.0000 0.64823  0.56477  0.83987  Biso   1.000  C
  H317     1.0000 0.67523  0.58967  0.84877  Biso   1.000  H
  C410     1.0000 0.61193  0.57757  0.83137  Biso   1.000  C
  C411     1.0000 0.57223  0.54237  0.81712  Biso   1.000  C
  C412     1.0000 0.68623  0.49607  0.84347  Biso   1.000  C
  C413     1.0000 0.56243  0.58317  0.78727  Biso   1.000  C
  H318     1.0000 0.59933  0.61247  0.78967  Biso   1.000  H
  H319     1.0000 0.54083  0.59777  0.78157  Biso   1.000  H
  H320     1.0000 0.56293  0.55717  0.77767  Biso   1.000  H
  C414     1.0000 0.61713  0.63287  0.83627  Biso   1.000  C
  H321     1.0000 0.63133  0.65577  0.82387  Biso   1.000  H
  H322     1.0000 0.64453  0.65027  0.84717  Biso   1.000  H
  C415     1.0000 0.56483  0.63337  0.84317  Biso   1.000  C
  C416     1.0000 0.54703  0.66677  0.83427  Biso   1.000  C
  H323     1.0000 0.56683  0.68817  0.82297  Biso   1.000  H
  C417     1.0000 0.50333  0.67087  0.84057  Biso   1.000  C
  C418     1.0000 0.47193  0.63767  0.85537  Biso   1.000  C
  H324     1.0000 0.44003  0.63787  0.85917  Biso   1.000  H
  C419     1.0000 0.48613  0.59967  0.86617  Biso   1.000  C
  C420     1.0000 0.53303  0.60107  0.85957  Biso   1.000  C
  C421     1.0000 0.48873  0.71317  0.82807  Biso   1.000  C
  C422     1.0000 0.58573  0.59917  0.88807  Biso   1.000  C
  H325     1.0000 0.60513  0.63807  0.88567  Biso   1.000  H
  H326     1.0000 0.61163  0.58677  0.89007  Biso   1.000  H
  H327     1.0000 0.56313  0.59087  0.90027  Biso   1.000  H
  C423     1.0000 0.45273  0.56637  0.88407  Biso   1.000  C
  H328     1.0000 0.42003  0.56967  0.88487  Biso   1.000  H
  H329     1.0000 0.47363  0.58217  0.89677  Biso   1.000  H
  C424     1.0000 0.43503  0.50607  0.88363  Biso   1.000  C
  C425     1.0000 0.44413  0.48287  0.90104  Biso   1.000  C
  H330     1.0000 0.46123  0.50547  0.91247  Biso   1.000  H
  C426     1.0000 0.42913  0.42747  0.90267  Biso   1.000  C
  Rb36     1.0000 0.19211  0.30903  0.79505  Biso   1.000  Rb
  C427     1.0000 0.40353  0.39517  0.88526  Biso   1.000  C
  H331     1.0000 0.39373  0.35827  0.88547  Biso   1.000  H
  C428     1.0000 0.39193  0.41597  0.86742  Biso   1.000  C
  C429     1.0000 0.40813  0.46907  0.86707  Biso   1.000  C
  C430     1.0000 0.43983  0.40977  0.92187  Biso   1.000  C
  C431     1.0000 0.33943  0.48657  0.85097  Biso   1.000  C
  H332     1.0000 0.31113  0.44887  0.84967  Biso   1.000  H
  H333     1.0000 0.33613  0.50777  0.83987  Biso   1.000  H
  H334     1.0000 0.33583  0.50067  0.86417  Biso   1.000  H
  C432     1.0000 0.36323  0.37837  0.84857  Biso   1.000  C
  H335     1.0000 0.36173  0.34367  0.85107  Biso   1.000  H
  H336     1.0000 0.32563  0.37107  0.84827  Biso   1.000  H
  Rb37     1.0000 0.11386  0.21276  0.14256  Biso   1.000  Rb
  O223     1.0000 0.46000  0.27350  0.10710  Biso   1.000  O
  C433     1.0000 0.44720  0.42130  0.06864  Biso   1.000  C
  Rb38     1.0000 0.20078  0.41206  0.20662  Biso   1.000  Rb
  O224     1.0000 0.53490  0.31690  0.09320  Biso   1.000  O
  C434     1.0000 0.41590  0.38660  0.08470  Biso   1.000  C
  Rb39     1.0000 0.54067  0.45510  0.11973  Biso   1.000  Rb
  O225     1.0000 0.43000  0.45390  0.05788  Biso   1.000  O
  C435     1.0000 0.43090  0.35440  0.09300  Biso   1.000  C
  H337     1.0000 0.40880  0.33100  0.10360  Biso   1.000  H
  Rb40     1.0000 0.43857  0.56334  0.06157  Biso   1.000  Rb
  O226     1.0000 0.53540  0.61450  0.00050  Biso   1.000  O
  C436     1.0000 0.47990  0.35190  0.08720  Biso   1.000  C
  Rb41     1.0000 0.37250  0.22760  0.13378  Biso   1.000  Rb
  O227     1.0000 0.57240  0.68950  0.02060  Biso   1.000  O
  C437     1.0000 0.51120  0.38860  0.07131  Biso   1.000  C
  H338     1.0000 0.54370  0.39030  0.06700  Biso   1.000  H
  O228     1.0000 0.58570  0.52180  0.08209  Biso   1.000  O
  C438     1.0000 0.49430  0.42330  0.06142  Biso   1.000  C
  O229     1.0000 0.67650  0.57350  0.15760  Biso   1.000  O
  C439     1.0000 0.49390  0.31380  0.09650  Biso   1.000  C
  O230     1.0000 0.59530  0.54150  0.17710  Biso   1.000  O
  C440     1.0000 0.39310  0.42550  0.04070  Biso   1.000  C
  H339     1.0000 0.35620  0.40450  0.04590  Biso   1.000  H
  H340     1.0000 0.39510  0.45180  0.03070  Biso   1.000  H
  H341     1.0000 0.40340  0.40130  0.03420  Biso   1.000  H
  O231     1.0000 0.50840  0.60530  0.09930  Biso   1.000  O
  C441     1.0000 0.53290  0.46330  0.04500  Biso   1.000  C
  H342     1.0000 0.51520  0.45190  0.03150  Biso   1.000  H
  H343     1.0000 0.56580  0.46040  0.04450  Biso   1.000  H
  O232     1.0000 0.29360  0.55650  0.09710  Biso   1.000  O
  C442     1.0000 0.54970  0.52250  0.04820  Biso   1.000  C
  O233     1.0000 0.25590  0.48850  0.07580  Biso   1.000  O
  C443     1.0000 0.54420  0.55100  0.03310  Biso   1.000  C
  H344     1.0000 0.52810  0.53340  0.02070  Biso   1.000  H
  O234     1.0000 0.43620  0.44940  0.12384  Biso   1.000  O
  C444     1.0000 0.56200  0.60820  0.03520  Biso   1.000  C
  C445     1.0000 0.58570  0.63350  0.05430  Biso   1.000  C
  H345     1.0000 0.59770  0.67060  0.05630  Biso   1.000  H
  C446     1.0000 0.59100  0.60310  0.07010  Biso   1.000  C
  C447     1.0000 0.57620  0.54890  0.06750  Biso   1.000  C
  C448     1.0000 0.55510  0.63970  0.01570  Biso   1.000  C
  C449     1.0000 0.63910  0.52830  0.07800  Biso   1.000  C
  H346     1.0000 0.66680  0.56100  0.08470  Biso   1.000  H
  H347     1.0000 0.64040  0.49700  0.08320  Biso   1.000  H
  H348     1.0000 0.64570  0.53140  0.06320  Biso   1.000  H
  O235     1.0000 0.62200  0.43000  0.11320  Biso   1.000  O
  C450     1.0000 0.61980  0.63210  0.09120  Biso   1.000  C
  H349     1.0000 0.62640  0.66940  0.09060  Biso   1.000  H
  H350     1.0000 0.65560  0.63470  0.09140  Biso   1.000  H
  O236     1.0000 0.15900  0.13700  0.29730  Biso   1.000  O
  C451     1.0000 0.59250  0.60810  0.11140  Biso   1.000  C
  C452     1.0000 0.61910  0.59690  0.12560  Biso   1.000  C
  H351     1.0000 0.65410  0.60290  0.12270  Biso   1.000  H
  C453     1.0000 0.59610  0.57670  0.14440  Biso   1.000  C
  C454     1.0000 0.53720  0.56290  0.14470  Biso   1.000  C
  H352     1.0000 0.51950  0.54620  0.15710  Biso   1.000  H
  O237     1.0000 0.39890  0.16630  0.12740  Biso   1.000  O
  C455     1.0000 0.50620  0.56880  0.13200  Biso   1.000  C
  O238     1.0000 0.26660  0.15660  0.15550  Biso   1.000  O
  C456     1.0000 0.53580  0.59650  0.11390  Biso   1.000  C
  O239     1.0000 0.27610  0.14500  0.15720  Biso   1.000  O
  C457     1.0000 0.63010  0.56650  0.16030  Biso   1.000  C
  O240     1.0000 0.27690  0.23080  0.11022  Biso   1.000  O
  C458     1.0000 0.51440  0.65830  0.10410  Biso   1.000  C
  H353     1.0000 0.53830  0.68490  0.09410  Biso   1.000  H
  H354     1.0000 0.47900  0.65580  0.10370  Biso   1.000  H
  H355     1.0000 0.52980  0.66950  0.11780  Biso   1.000  H
  O241     1.0000 0.22970  0.25800  0.09020  Biso   1.000  O
  C459     1.0000 0.45120  0.55150  0.13790  Biso   1.000  C
  H356     1.0000 0.44270  0.52980  0.15050  Biso   1.000  H
  H357     1.0000 0.44820  0.58360  0.14100  Biso   1.000  H
  O242     1.0000 0.19500  0.23000  0.08970  Biso   1.000  O
  C460     1.0000 0.40760  0.51660  0.12080  Biso   1.000  C
  O243     1.0000 0.26030  0.40100  0.17148  Biso   1.000  O
  C461     1.0000 0.36710  0.52850  0.11130  Biso   1.000  C
  H358     1.0000 0.36750  0.56060  0.11520  Biso   1.000  H
  O244     1.0000 0.20840  0.56070  0.16910  Biso   1.000  O
  C462     1.0000 0.33180  0.49760  0.09810  Biso   1.000  C
  O245     1.0000 0.14520  0.53620  0.19110  Biso   1.000  O
  C463     1.0000 0.33110  0.45720  0.09240  Biso   1.000  C
  H359     1.0000 0.30510  0.43600  0.08230  Biso   1.000  H
  O246     1.0000 0.12720  0.51720  0.18890  Biso   1.000  O
  C464     1.0000 0.36890  0.43720  0.10000  Biso   1.000  C
  O247     1.0000 0.11090  0.31610  0.14028  Biso   1.000  O
  C465     1.0000 0.40400  0.46710  0.11490  Biso   1.000  C
  O248     1.0000 0.92590  0.11090  0.14800  Biso   1.000  O
  C466     1.0000 0.28740  0.51360  0.08960  Biso   1.000  C
  O249     1.0000 0.95650  0.06760  0.17120  Biso   1.000  O
  C467     1.0000 0.40770  0.41510  0.14060  Biso   1.000  C
  H360     1.0000 0.37060  0.38990  0.13650  Biso   1.000  H
  H361     1.0000 0.42540  0.39490  0.14470  Biso   1.000  H
  H362     1.0000 0.40760  0.43690  0.15210  Biso   1.000  H
  O250     1.0000 0.09550  0.31330  0.20338  Biso   1.000  O
  C468     1.0000 0.36270  0.38450  0.09180  Biso   1.000  C
  H363     1.0000 0.34590  0.35670  0.10260  Biso   1.000  H
  H364     1.0000 0.33760  0.37270  0.08000  Biso   1.000  H
  O251     1.0000 0.22940  0.34830  0.27170  Biso   1.000  O
  C469     1.0000 0.26920  0.32270  0.16100  Biso   1.000  C
  O252     1.0000 0.30720  0.40680  0.25520  Biso   1.000  O
  C470     1.0000 0.26830  0.28920  0.14500  Biso   1.000  C
  H365     1.0000 0.27980  0.26400  0.14760  Biso   1.000  H
  O253     1.0000 0.17610  0.23660  0.18313  Biso   1.000  O
  C471     1.0000 0.25050  0.29220  0.12490  Biso   1.000  C
  C472     1.0000 0.23310  0.33150  0.12080  Biso   1.000  C
  H366     1.0000 0.22070  0.33340  0.10760  Biso   1.000  H
  C473     1.0000 0.23450  0.36640  0.13619  Biso   1.000  C
  O254     1.0000 0.14780  0.47220  0.22480  Biso   1.000  O
  C474     1.0000 0.25520  0.36280  0.15620  Biso   1.000  C
  O255     1.0000 0.12240  0.44850  0.22170  Biso   1.000  O
  C475     1.0000 0.25310  0.25730  0.10710  Biso   1.000  C
  C476     1.0000 0.31150  0.45020  0.17080  Biso   1.000  C
  H367     1.0000 0.34030  0.44250  0.17400  Biso   1.000  H
  H368     1.0000 0.31170  0.47560  0.18090  Biso   1.000  H
  H369     1.0000 0.31710  0.46600  0.15710  Biso   1.000  H
  O256     1.0000 0.06600  0.09450  0.15620  Biso   1.000  O
  C477     1.0000 0.21870  0.40990  0.13180  Biso   1.000  C
  H370     1.0000 0.25170  0.44570  0.13240  Biso   1.000  H
  H371     1.0000 0.20470  0.40480  0.11760  Biso   1.000  H
  O257     1.0000 0.05300  0.09580  0.15000  Biso   1.000  O
  C478     1.0000 0.17650  0.41000  0.14626  Biso   1.000  C
  O258     1.0000 0.16330  0.14870  0.12680  Biso   1.000  O
  C479     1.0000 0.18900  0.45980  0.15510  Biso   1.000  C
  H372     1.0000 0.22260  0.49090  0.15210  Biso   1.000  H
  O259     1.0000 0.17940  0.15370  0.13330  Biso   1.000  O
  C480     1.0000 0.15140  0.46440  0.16886  Biso   1.000  C
  C481     1.0000 0.10190  0.41680  0.17320  Biso   1.000  C
  H373     1.0000 0.07700  0.41890  0.18210  Biso   1.000  H
  C482     1.0000 0.08910  0.36770  0.16470  Biso   1.000  C
  C483     1.0000 0.12430  0.36320  0.15045  Biso   1.000  C
  C484     1.0000 0.17060  0.52350  0.17680  Biso   1.000  C
  C485     1.0000 0.08350  0.31260  0.12060  Biso   1.000  C
  H374     1.0000 0.05420  0.32020  0.12300  Biso   1.000  H
  H375     1.0000 0.06890  0.27640  0.11490  Biso   1.000  H
  H376     1.0000 0.10950  0.33910  0.11100  Biso   1.000  H
  C486     1.0000 0.03380  0.31760  0.16960  Biso   1.000  C
  H377     1.0000 0.01090  0.30890  0.15720  Biso   1.000  H
  H378     1.0000 0.01640  0.32760  0.18050  Biso   1.000  H
  C487     1.0000 0.03330  0.26480  0.17650  Biso   1.000  C
  C488     1.0000 0.99990  0.21360  0.16760  Biso   1.000  C
  H379     1.0000 0.97850  0.21200  0.15630  Biso   1.000  H
  C489     1.0000 0.99580  0.16580  0.17390  Biso   1.000  C
  C490     1.0000 0.02900  0.16760  0.18870  Biso   1.000  C
  H380     1.0000 0.02880  0.13550  0.19250  Biso   1.000  H
  C491     1.0000 0.06700  0.21980  0.19950  Biso   1.000  C
  C492     1.0000 0.06560  0.26530  0.19290  Biso   1.000  C
  C493     1.0000 0.95350  0.10890  0.16140  Biso   1.000  C
  C494     1.0000 0.06750  0.31990  0.22140  Biso   1.000  C
  H381     1.0000 0.02860  0.30040  0.21900  Biso   1.000  H
  H382     1.0000 0.07990  0.35820  0.22340  Biso   1.000  H
  H383     1.0000 0.07580  0.30560  0.23360  Biso   1.000  H
  C495     1.0000 0.10030  0.21970  0.21740  Biso   1.000  C
  H384     1.0000 0.09700  0.18370  0.21820  Biso   1.000  H
  H385     1.0000 0.08450  0.22480  0.23010  Biso   1.000  H
  C496     1.0000 0.16060  0.26230  0.21696  Biso   1.000  C
  C497     1.0000 0.18380  0.29460  0.23437  Biso   1.000  C
  H386     1.0000 0.16120  0.28910  0.24580  Biso   1.000  H
  C498     1.0000 0.23920  0.33500  0.23600  Biso   1.000  C
  Rb42     1.0000 0.35764  0.21642  0.12838  Biso   1.000  Rb
  C499     1.0000 0.27150  0.34170  0.21859  Biso   1.000  C
  H387     1.0000 0.30840  0.36880  0.21880  Biso   1.000  H
  C500     1.0000 0.25070  0.30930  0.20075  Biso   1.000  C
  C501     1.0000 0.19760  0.27240  0.20040  Biso   1.000  C
  C502     1.0000 0.25690  0.36340  0.25520  Biso   1.000  C
  C503     1.0000 0.18010  0.18620  0.18430  Biso   1.000  C
  H388     1.0000 0.21780  0.19560  0.18300  Biso   1.000  H
  H389     1.0000 0.15890  0.16170  0.17320  Biso   1.000  H
  H390     1.0000 0.16600  0.16850  0.19750  Biso   1.000  H
  C504     1.0000 0.28830  0.31820  0.18190  Biso   1.000  C
  H391     1.0000 0.32300  0.35140  0.18440  Biso   1.000  H
  H392     1.0000 0.29560  0.28790  0.18160  Biso   1.000  H
  Rb43     1.0000 0.78053  0.54609  0.47589  Biso   1.000  Rb
  O260     1.0000 0.12667  0.60683  0.44043  Biso   1.000  O
  C505     1.0000 0.11387  0.75463  0.40197  Biso   1.000  C
  Rb44     1.0000 0.86745  0.74539  0.53995  Biso   1.000  Rb
  O261     1.0000 0.20157  0.65023  0.42653  Biso   1.000  O
  C506     1.0000 0.08257  0.71993  0.41803  Biso   1.000  C
  Rb45     1.0000 0.20734  0.78843  0.45306  Biso   1.000  Rb
  O262     1.0000 0.09667  0.78723  0.39121  Biso   1.000  O
  C507     1.0000 0.09757  0.68773  0.42633  Biso   1.000  C
  H393     1.0000 0.07547  0.66433  0.43693  Biso   1.000  H
  Rb46     1.0000 0.10524  0.89667  0.39490  Biso   1.000  Rb
  O263     1.0000 0.20207  0.94783  0.33383  Biso   1.000  O
  C508     1.0000 0.14657  0.68523  0.42053  Biso   1.000  C
  Rb47     1.0000 0.03917  0.56093  0.46711  Biso   1.000  Rb
  O264     1.0000 0.23907  0.02283  0.35393  Biso   1.000  O
  C509     1.0000 0.17787  0.72193  0.40464  Biso   1.000  C
  H394     1.0000 0.21037  0.72363  0.40033  Biso   1.000  H
  O265     1.0000 0.25237  0.85513  0.41542  Biso   1.000  O
  C510     1.0000 0.16097  0.75663  0.39475  Biso   1.000  C
  O266     1.0000 0.34317  0.90683  0.49093  Biso   1.000  O
  C511     1.0000 0.16057  0.64713  0.42983  Biso   1.000  C
  O267     1.0000 0.26197  0.87483  0.51043  Biso   1.000  O
  C512     1.0000 0.05977  0.75883  0.37403  Biso   1.000  C
  H395     1.0000 0.02287  0.73783  0.37923  Biso   1.000  H
  H396     1.0000 0.06177  0.78513  0.36403  Biso   1.000  H
  H397     1.0000 0.07007  0.73463  0.36753  Biso   1.000  H
  O268     1.0000 0.17507  0.93863  0.43263  Biso   1.000  O
  C513     1.0000 0.19957  0.79663  0.37833  Biso   1.000  C
  H398     1.0000 0.18187  0.78523  0.36483  Biso   1.000  H
  H399     1.0000 0.23247  0.79373  0.37783  Biso   1.000  H
  O269     1.0000 0.96027  0.88983  0.43043  Biso   1.000  O
  C514     1.0000 0.21637  0.85583  0.38153  Biso   1.000  C
  O270     1.0000 0.92257  0.82183  0.40913  Biso   1.000  O
  C515     1.0000 0.21087  0.88433  0.36643  Biso   1.000  C
  H400     1.0000 0.19477  0.86673  0.35403  Biso   1.000  H
  O271     1.0000 0.10287  0.78273  0.45717  Biso   1.000  O
  C516     1.0000 0.22867  0.94153  0.36853  Biso   1.000  C
  C517     1.0000 0.25237  0.96683  0.38763  Biso   1.000  C
  H401     1.0000 0.26437  0.00393  0.38963  Biso   1.000  H
  C518     1.0000 0.25767  0.93643  0.40343  Biso   1.000  C
  C519     1.0000 0.24287  0.88223  0.40083  Biso   1.000  C
  C520     1.0000 0.22177  0.97303  0.34903  Biso   1.000  C
  C521     1.0000 0.30577  0.86163  0.41133  Biso   1.000  C
  H402     1.0000 0.33347  0.89433  0.41803  Biso   1.000  H
  H403     1.0000 0.30707  0.83033  0.41653  Biso   1.000  H
  H404     1.0000 0.31237  0.86473  0.39653  Biso   1.000  H
  O272     1.0000 0.28867  0.76333  0.44653  Biso   1.000  O
  C522     1.0000 0.28647  0.96543  0.42453  Biso   1.000  C
  H405     1.0000 0.29307  0.00273  0.42393  Biso   1.000  H
  H406     1.0000 0.32227  0.96803  0.42473  Biso   1.000  H
  O273     1.0000 0.82567  0.47033  0.63063  Biso   1.000  O
  C523     1.0000 0.25917  0.94143  0.44473  Biso   1.000  C
  C524     1.0000 0.28577  0.93023  0.45893  Biso   1.000  C
  H407     1.0000 0.32077  0.93623  0.45603  Biso   1.000  H
  C525     1.0000 0.26277  0.91003  0.47773  Biso   1.000  C
  C526     1.0000 0.20387  0.89623  0.47803  Biso   1.000  C
  H408     1.0000 0.18617  0.87953  0.49043  Biso   1.000  H
  O274     1.0000 0.06557  0.49963  0.46073  Biso   1.000  O
  C527     1.0000 0.17287  0.90213  0.46533  Biso   1.000  C
  O275     1.0000 0.93327  0.48993  0.48883  Biso   1.000  O
  C528     1.0000 0.20247  0.92983  0.44723  Biso   1.000  C
  O276     1.0000 0.94277  0.47833  0.49053  Biso   1.000  O
  C529     1.0000 0.29677  0.89983  0.49363  Biso   1.000  C
  O277     1.0000 0.94357  0.56413  0.44355  Biso   1.000  O
  C530     1.0000 0.18107  0.99163  0.43743  Biso   1.000  C
  H409     1.0000 0.20497  0.01823  0.42743  Biso   1.000  H
  H410     1.0000 0.14567  0.98913  0.43703  Biso   1.000  H
  H411     1.0000 0.19647  0.00283  0.45113  Biso   1.000  H
  O278     1.0000 0.89637  0.59133  0.42353  Biso   1.000  O
  C531     1.0000 0.11787  0.88483  0.47123  Biso   1.000  C
  H412     1.0000 0.10937  0.86313  0.48383  Biso   1.000  H
  H413     1.0000 0.11487  0.91693  0.47433  Biso   1.000  H
  O279     1.0000 0.86167  0.56333  0.42303  Biso   1.000  O
  C532     1.0000 0.07427  0.84993  0.45413  Biso   1.000  C
  O280     1.0000 0.92697  0.73433  0.50481  Biso   1.000  O
  C533     1.0000 0.03377  0.86183  0.44463  Biso   1.000  C
  H414     1.0000 0.03417  0.89393  0.44853  Biso   1.000  H
  O281     1.0000 0.87507  0.89403  0.50243  Biso   1.000  O
  C534     1.0000 0.99847  0.83093  0.43143  Biso   1.000  C
  O282     1.0000 0.81187  0.86953  0.52443  Biso   1.000  O
  C535     1.0000 0.99777  0.79053  0.42573  Biso   1.000  C
  H415     1.0000 0.97177  0.76933  0.41563  Biso   1.000  H
  O283     1.0000 0.79387  0.85053  0.52223  Biso   1.000  O
  C536     1.0000 0.03557  0.77053  0.43333  Biso   1.000  C
  O284     1.0000 0.77757  0.64943  0.47361  Biso   1.000  O
  C537     1.0000 0.07067  0.80043  0.44823  Biso   1.000  C
  O285     1.0000 0.59257  0.44423  0.48133  Biso   1.000  O
  C538     1.0000 0.95407  0.84693  0.42293  Biso   1.000  C
  O286     1.0000 0.62317  0.40093  0.50453  Biso   1.000  O
  C539     1.0000 0.07437  0.74843  0.47393  Biso   1.000  C
  H416     1.0000 0.03727  0.72323  0.46983  Biso   1.000  H
  H417     1.0000 0.09207  0.72823  0.47803  Biso   1.000  H
  H418     1.0000 0.07427  0.77023  0.48543  Biso   1.000  H
  O287     1.0000 0.76217  0.64663  0.53671  Biso   1.000  O
  C540     1.0000 0.02937  0.71783  0.42513  Biso   1.000  C
  H419     1.0000 0.01257  0.69003  0.43593  Biso   1.000  H
  H420     1.0000 0.00427  0.70603  0.41333  Biso   1.000  H
  O288     1.0000 0.89607  0.68163  0.60503  Biso   1.000  O
  C541     1.0000 0.93587  0.65603  0.49433  Biso   1.000  C
  O289     1.0000 0.97387  0.74013  0.58853  Biso   1.000  O
  C542     1.0000 0.93497  0.62253  0.47833  Biso   1.000  C
  H421     1.0000 0.94647  0.59733  0.48093  Biso   1.000  H
  O290     1.0000 0.84277  0.56993  0.51646  Biso   1.000  O
  C543     1.0000 0.91717  0.62553  0.45823  Biso   1.000  C
  C544     1.0000 0.89977  0.66483  0.45413  Biso   1.000  C
  H422     1.0000 0.88737  0.66673  0.44093  Biso   1.000  H
  C545     1.0000 0.90117  0.69973  0.46952  Biso   1.000  C
  O291     1.0000 0.81447  0.80553  0.55813  Biso   1.000  O
  C546     1.0000 0.92187  0.69613  0.48953  Biso   1.000  C
  O292     1.0000 0.78907  0.78183  0.55503  Biso   1.000  O
  C547     1.0000 0.91977  0.59063  0.44043  Biso   1.000  C
  C548     1.0000 0.97817  0.78353  0.50413  Biso   1.000  C
  H423     1.0000 0.00697  0.77583  0.50733  Biso   1.000  H
  H424     1.0000 0.97837  0.80893  0.51423  Biso   1.000  H
  H425     1.0000 0.98377  0.79933  0.49043  Biso   1.000  H
  O293     1.0000 0.73267  0.42783  0.48953  Biso   1.000  O
  C549     1.0000 0.88537  0.74323  0.46513  Biso   1.000  C
  H426     1.0000 0.91837  0.77903  0.46573  Biso   1.000  H
  H427     1.0000 0.87137  0.73813  0.45093  Biso   1.000  H
  O294     1.0000 0.71967  0.42913  0.48333  Biso   1.000  O
  C550     1.0000 0.84317  0.74333  0.47959  Biso   1.000  C
  O295     1.0000 0.82997  0.48203  0.46013  Biso   1.000  O
  C551     1.0000 0.85567  0.79313  0.48843  Biso   1.000  C
  H428     1.0000 0.88927  0.82423  0.48543  Biso   1.000  H
  O296     1.0000 0.84607  0.48703  0.46663  Biso   1.000  O
  C552     1.0000 0.81807  0.79773  0.50219  Biso   1.000  C
  C553     1.0000 0.76857  0.75013  0.50653  Biso   1.000  C
  H429     1.0000 0.74367  0.75223  0.51543  Biso   1.000  H
  C554     1.0000 0.75577  0.70103  0.49803  Biso   1.000  C
  C555     1.0000 0.79097  0.69653  0.48378  Biso   1.000  C
  C556     1.0000 0.83727  0.85683  0.51013  Biso   1.000  C
  C557     1.0000 0.75017  0.64593  0.45393  Biso   1.000  C
  H430     1.0000 0.72087  0.65353  0.45633  Biso   1.000  H
  H431     1.0000 0.73557  0.60973  0.44823  Biso   1.000  H
  H432     1.0000 0.77617  0.67243  0.44433  Biso   1.000  H
  C558     1.0000 0.70047  0.65093  0.50293  Biso   1.000  C
  H433     1.0000 0.67757  0.64223  0.49053  Biso   1.000  H
  H434     1.0000 0.68307  0.66093  0.51383  Biso   1.000  H
  C559     1.0000 0.69997  0.59813  0.50983  Biso   1.000  C
  C560     1.0000 0.66657  0.54693  0.50093  Biso   1.000  C
  H435     1.0000 0.64517  0.54533  0.48963  Biso   1.000  H
  C561     1.0000 0.66247  0.49913  0.50723  Biso   1.000  C
  C562     1.0000 0.69567  0.50093  0.52203  Biso   1.000  C
  H436     1.0000 0.69547  0.46883  0.52583  Biso   1.000  H
  C563     1.0000 0.73367  0.55313  0.53283  Biso   1.000  C
  C564     1.0000 0.73227  0.59863  0.52623  Biso   1.000  C
  C565     1.0000 0.62017  0.44223  0.49473  Biso   1.000  C
  C566     1.0000 0.73417  0.65323  0.55473  Biso   1.000  C
  H437     1.0000 0.69527  0.63373  0.55233  Biso   1.000  H
  H438     1.0000 0.74657  0.69153  0.55673  Biso   1.000  H
  H439     1.0000 0.74247  0.63893  0.56693  Biso   1.000  H
  C567     1.0000 0.76697  0.55303  0.55073  Biso   1.000  C
  H440     1.0000 0.76367  0.51703  0.55153  Biso   1.000  H
  H441     1.0000 0.75117  0.55813  0.56343  Biso   1.000  H
  C568     1.0000 0.82727  0.59563  0.55029  Biso   1.000  C
  C569     1.0000 0.85047  0.62793  0.56770  Biso   1.000  C
  H442     1.0000 0.82787  0.62243  0.57913  Biso   1.000  H
  C570     1.0000 0.90587  0.66833  0.56933  Biso   1.000  C
  Rb48     1.0000 0.02431  0.54975  0.46171  Biso   1.000  Rb
  C571     1.0000 0.93817  0.67503  0.55192  Biso   1.000  C
  H443     1.0000 0.97507  0.70213  0.55213  Biso   1.000  H
  C572     1.0000 0.91737  0.64263  0.53408  Biso   1.000  C
  C573     1.0000 0.86427  0.60573  0.53373  Biso   1.000  C
  C574     1.0000 0.92357  0.69673  0.58853  Biso   1.000  C
  C575     1.0000 0.84677  0.51953  0.51763  Biso   1.000  C
  H444     1.0000 0.88447  0.52893  0.51633  Biso   1.000  H
  H445     1.0000 0.82557  0.49503  0.50653  Biso   1.000  H
  H446     1.0000 0.83267  0.50183  0.53083  Biso   1.000  H
  C576     1.0000 0.95497  0.65153  0.51523  Biso   1.000  C
  H447     1.0000 0.98967  0.68473  0.51773  Biso   1.000  H
  H448     1.0000 0.96227  0.62123  0.51493  Biso   1.000  H
  Rb49     1.0000 0.44719  0.87943  0.80923  Biso   1.000  Rb
  O297     1.0000 0.79333  0.94017  0.77377  Biso   1.000  O
  C577     1.0000 0.78053  0.08797  0.73531  Biso   1.000  C
  Rb50     1.0000 0.53411  0.07873  0.87329  Biso   1.000  Rb
  O298     1.0000 0.86823  0.98357  0.75987  Biso   1.000  O
  C578     1.0000 0.74923  0.05327  0.75137  Biso   1.000  C
  Rb51     1.0000 0.87400  0.12177  0.78640  Biso   1.000  Rb
  O299     1.0000 0.76333  0.12057  0.72455  Biso   1.000  O
  C579     1.0000 0.76423  0.02107  0.75967  Biso   1.000  C
  H449     1.0000 0.74213  0.99767  0.77027  Biso   1.000  H
  Rb52     1.0000 0.77190  0.23001  0.72824  Biso   1.000  Rb
  O300     1.0000 0.86873  0.28117  0.66717  Biso   1.000  O
  C580     1.0000 0.81323  0.01857  0.75387  Biso   1.000  C
  Rb53     1.0000 0.70583  0.89427  0.80045  Biso   1.000  Rb
  O301     1.0000 0.90573  0.35617  0.68727  Biso   1.000  O
  C581     1.0000 0.84453  0.05527  0.73798  Biso   1.000  C
  H450     1.0000 0.87703  0.05697  0.73367  Biso   1.000  H
  O302     1.0000 0.91903  0.18847  0.74876  Biso   1.000  O
  C582     1.0000 0.82763  0.08997  0.72809  Biso   1.000  C
  O303     1.0000 0.00983  0.24017  0.82427  Biso   1.000  O
  C583     1.0000 0.82723  0.98047  0.76317  Biso   1.000  C
  O304     1.0000 0.92863  0.20817  0.84377  Biso   1.000  O
  C584     1.0000 0.72643  0.09217  0.70737  Biso   1.000  C
  H451     1.0000 0.68953  0.07117  0.71257  Biso   1.000  H
  H452     1.0000 0.72843  0.11847  0.69737  Biso   1.000  H
  H453     1.0000 0.73673  0.06797  0.70087  Biso   1.000  H
  O305     1.0000 0.84173  0.27197  0.76597  Biso   1.000  O
  C585     1.0000 0.86623  0.12997  0.71167  Biso   1.000  C
  H454     1.0000 0.84853  0.11857  0.69817  Biso   1.000  H
  H455     1.0000 0.89913  0.12707  0.71117  Biso   1.000  H
  O306     1.0000 0.62693  0.22317  0.76377  Biso   1.000  O
  C586     1.0000 0.88303  0.18917  0.71487  Biso   1.000  C
  O307     1.0000 0.58923  0.15517  0.74247  Biso   1.000  O
  C587     1.0000 0.87753  0.21767  0.69977  Biso   1.000  C
  H456     1.0000 0.86143  0.20007  0.68737  Biso   1.000  H
  O308     1.0000 0.76953  0.11607  0.79051  Biso   1.000  O
  C588     1.0000 0.89533  0.27487  0.70187  Biso   1.000  C
  C589     1.0000 0.91903  0.30017  0.72097  Biso   1.000  C
  H457     1.0000 0.93103  0.33727  0.72297  Biso   1.000  H
  C590     1.0000 0.92433  0.26977  0.73677  Biso   1.000  C
  C591     1.0000 0.90953  0.21557  0.73417  Biso   1.000  C
  C592     1.0000 0.88843  0.30637  0.68237  Biso   1.000  C
  C593     1.0000 0.97243  0.19497  0.74467  Biso   1.000  C
  H458     1.0000 0.00013  0.22767  0.75137  Biso   1.000  H
  H459     1.0000 0.97373  0.16367  0.74987  Biso   1.000  H
  H460     1.0000 0.97903  0.19807  0.72987  Biso   1.000  H
  O309     1.0000 0.95533  0.09667  0.77987  Biso   1.000  O
  C594     1.0000 0.95313  0.29877  0.75787  Biso   1.000  C
  H461     1.0000 0.95973  0.33607  0.75727  Biso   1.000  H
  H462     1.0000 0.98893  0.30137  0.75807  Biso   1.000  H
  O310     1.0000 0.49233  0.80367  0.96397  Biso   1.000  O
  C595     1.0000 0.92583  0.27477  0.77807  Biso   1.000  C
  C596     1.0000 0.95243  0.26357  0.79227  Biso   1.000  C
  H463     1.0000 0.98743  0.26957  0.78937  Biso   1.000  H
  C597     1.0000 0.92943  0.24337  0.81107  Biso   1.000  C
  C598     1.0000 0.87053  0.22957  0.81137  Biso   1.000  C
  H464     1.0000 0.85283  0.21287  0.82377  Biso   1.000  H
  O311     1.0000 0.73223  0.83297  0.79407  Biso   1.000  O
  C599     1.0000 0.83953  0.23547  0.79867  Biso   1.000  C
  O312     1.0000 0.59993  0.82327  0.82217  Biso   1.000  O
  C600     1.0000 0.86913  0.26317  0.78057  Biso   1.000  C
  O313     1.0000 0.60943  0.81167  0.82387  Biso   1.000  O
  C601     1.0000 0.96343  0.23317  0.82697  Biso   1.000  C
  O314     1.0000 0.61023  0.89747  0.77689  Biso   1.000  O
  C602     1.0000 0.84773  0.32497  0.77077  Biso   1.000  C
  H465     1.0000 0.87163  0.35157  0.76077  Biso   1.000  H
  H466     1.0000 0.81233  0.32247  0.77037  Biso   1.000  H
  H467     1.0000 0.86313  0.33617  0.78447  Biso   1.000  H
  O315     1.0000 0.56303  0.92467  0.75687  Biso   1.000  O
  C603     1.0000 0.78453  0.21817  0.80457  Biso   1.000  C
  H468     1.0000 0.77603  0.19647  0.81717  Biso   1.000  H
  H469     1.0000 0.78153  0.25027  0.80767  Biso   1.000  H
  O316     1.0000 0.52833  0.89667  0.75637  Biso   1.000  O
  C604     1.0000 0.74093  0.18327  0.78747  Biso   1.000  C
  O317     1.0000 0.59363  0.06767  0.83815  Biso   1.000  O
  C605     1.0000 0.70043  0.19517  0.77797  Biso   1.000  C
  H470     1.0000 0.70083  0.22727  0.78187  Biso   1.000  H
  O318     1.0000 0.54173  0.22737  0.83577  Biso   1.000  O
  C606     1.0000 0.66513  0.16427  0.76477  Biso   1.000  C
  O319     1.0000 0.47853  0.20287  0.85777  Biso   1.000  O
  C607     1.0000 0.66443  0.12387  0.75907  Biso   1.000  C
  H471     1.0000 0.63843  0.10267  0.74897  Biso   1.000  H
  O320     1.0000 0.46053  0.18387  0.85557  Biso   1.000  O
  C608     1.0000 0.70223  0.10387  0.76667  Biso   1.000  C
  O321     1.0000 0.44423  0.98277  0.80695  Biso   1.000  O
  C609     1.0000 0.73733  0.13377  0.78157  Biso   1.000  C
  O322     1.0000 0.25923  0.77757  0.81467  Biso   1.000  O
  C610     1.0000 0.62073  0.18027  0.75627  Biso   1.000  C
  O323     1.0000 0.28983  0.73427  0.83787  Biso   1.000  O
  C611     1.0000 0.74103  0.08177  0.80727  Biso   1.000  C
  H472     1.0000 0.70393  0.05657  0.80317  Biso   1.000  H
  H473     1.0000 0.75873  0.06157  0.81137  Biso   1.000  H
  H474     1.0000 0.74093  0.10357  0.81877  Biso   1.000  H
  O324     1.0000 0.42883  0.97997  0.87005  Biso   1.000  O
  C612     1.0000 0.69603  0.05117  0.75847  Biso   1.000  C
  H475     1.0000 0.67923  0.02337  0.76927  Biso   1.000  H
  H476     1.0000 0.67093  0.03937  0.74667  Biso   1.000  H
  O325     1.0000 0.56273  0.01497  0.93837  Biso   1.000  O
  C613     1.0000 0.60253  0.98937  0.82767  Biso   1.000  C
  O326     1.0000 0.64053  0.07347  0.92187  Biso   1.000  O
  C614     1.0000 0.60163  0.95587  0.81167  Biso   1.000  C
  H477     1.0000 0.61313  0.93067  0.81427  Biso   1.000  H
  O327     1.0000 0.50943  0.90327  0.84980  Biso   1.000  O
  C615     1.0000 0.58383  0.95887  0.79157  Biso   1.000  C
  C616     1.0000 0.56643  0.99817  0.78747  Biso   1.000  C
  H478     1.0000 0.55403  0.00007  0.77427  Biso   1.000  H
  C617     1.0000 0.56783  0.03307  0.80286  Biso   1.000  C
  O328     1.0000 0.48113  0.13887  0.89147  Biso   1.000  O
  C618     1.0000 0.58853  0.02947  0.82287  Biso   1.000  C
  O329     1.0000 0.45573  0.11517  0.88837  Biso   1.000  O
  C619     1.0000 0.58643  0.92397  0.77377  Biso   1.000  C
  C620     1.0000 0.64483  0.11687  0.83747  Biso   1.000  C
  H479     1.0000 0.67363  0.10917  0.84067  Biso   1.000  H
  H480     1.0000 0.64503  0.14227  0.84757  Biso   1.000  H
  H481     1.0000 0.65043  0.13267  0.82377  Biso   1.000  H
  O330     1.0000 0.39933  0.76117  0.82287  Biso   1.000  O
  C621     1.0000 0.55203  0.07657  0.79847  Biso   1.000  C
  H482     1.0000 0.58503  0.11237  0.79907  Biso   1.000  H
  H483     1.0000 0.53803  0.07147  0.78427  Biso   1.000  H
  O331     1.0000 0.38633  0.76247  0.81667  Biso   1.000  O
  C622     1.0000 0.50983  0.07667  0.81293  Biso   1.000  C
  O332     1.0000 0.49663  0.81537  0.79347  Biso   1.000  O
  C623     1.0000 0.52233  0.12647  0.82177  Biso   1.000  C
  H484     1.0000 0.55593  0.15757  0.81877  Biso   1.000  H
  O333     1.0000 0.51273  0.82037  0.79997  Biso   1.000  O
  C624     1.0000 0.48473  0.13107  0.83553  Biso   1.000  C
  C625     1.0000 0.43523  0.08347  0.83987  Biso   1.000  C
  H485     1.0000 0.41033  0.08557  0.84877  Biso   1.000  H
  C626     1.0000 0.42243  0.03437  0.83137  Biso   1.000  C
  C627     1.0000 0.45763  0.02987  0.81712  Biso   1.000  C
  C628     1.0000 0.50393  0.19017  0.84347  Biso   1.000  C
  C629     1.0000 0.41683  0.97927  0.78727  Biso   1.000  C
  H486     1.0000 0.38753  0.98687  0.78967  Biso   1.000  H
  H487     1.0000 0.40223  0.94307  0.78157  Biso   1.000  H
  H488     1.0000 0.44283  0.00577  0.77767  Biso   1.000  H
  C630     1.0000 0.36713  0.98427  0.83627  Biso   1.000  C
  H489     1.0000 0.34423  0.97557  0.82387  Biso   1.000  H
  H490     1.0000 0.34973  0.99427  0.84717  Biso   1.000  H
  C631     1.0000 0.36663  0.93147  0.84317  Biso   1.000  C
  C632     1.0000 0.33323  0.88027  0.83427  Biso   1.000  C
  H491     1.0000 0.31183  0.87867  0.82297  Biso   1.000  H
  C633     1.0000 0.32913  0.83247  0.84057  Biso   1.000  C
  C634     1.0000 0.36233  0.83427  0.85537  Biso   1.000  C
  H492     1.0000 0.36213  0.80217  0.85917  Biso   1.000  H
  C635     1.0000 0.40033  0.88647  0.86617  Biso   1.000  C
  C636     1.0000 0.39893  0.93197  0.85957  Biso   1.000  C
  C637     1.0000 0.28683  0.77557  0.82807  Biso   1.000  C
  C638     1.0000 0.40083  0.98657  0.88807  Biso   1.000  C
  H493     1.0000 0.36193  0.96707  0.88567  Biso   1.000  H
  H494     1.0000 0.41323  0.02487  0.89007  Biso   1.000  H
  H495     1.0000 0.40913  0.97227  0.90027  Biso   1.000  H
  C639     1.0000 0.43363  0.88637  0.88407  Biso   1.000  C
  H496     1.0000 0.43033  0.85037  0.88487  Biso   1.000  H
  H497     1.0000 0.41783  0.89147  0.89677  Biso   1.000  H
  C640     1.0000 0.49393  0.92897  0.88363  Biso   1.000  C
  C641     1.0000 0.51713  0.96127  0.90104  Biso   1.000  C
  H498     1.0000 0.49453  0.95577  0.91247  Biso   1.000  H
  C642     1.0000 0.57253  0.00167  0.90267  Biso   1.000  C
  Rb54     1.0000 0.69097  0.88309  0.79505  Biso   1.000  Rb
  C643     1.0000 0.60483  0.00837  0.88526  Biso   1.000  C
  H499     1.0000 0.64173  0.03547  0.88547  Biso   1.000  H
  C644     1.0000 0.58403  0.97597  0.86742  Biso   1.000  C
  C645     1.0000 0.53093  0.93907  0.86707  Biso   1.000  C
  C646     1.0000 0.59023  0.03007  0.92187  Biso   1.000  C
  C647     1.0000 0.51343  0.85287  0.85097  Biso   1.000  C
  H500     1.0000 0.55113  0.86227  0.84967  Biso   1.000  H
  H501     1.0000 0.49223  0.82837  0.83987  Biso   1.000  H
  H502     1.0000 0.49933  0.83517  0.86417  Biso   1.000  H
  C648     1.0000 0.62163  0.98487  0.84857  Biso   1.000  C
  H503     1.0000 0.65633  0.01807  0.85107  Biso   1.000  H
  H504     1.0000 0.62893  0.95457  0.84827  Biso   1.000  H
  Rb55     1.0000 0.09890  0.21276  0.64256  Biso   1.000  Rb
  O334     1.0000 0.81350  0.27350  0.60710  Biso   1.000  O
  C649     1.0000 0.97410  0.42130  0.56864  Biso   1.000  C
  Rb56     1.0000 0.21128  0.41206  0.70662  Biso   1.000  Rb
  O335     1.0000 0.78200  0.31690  0.59320  Biso   1.000  O
  C650     1.0000 0.97070  0.38660  0.58470  Biso   1.000  C
  Rb57     1.0000 0.91443  0.45510  0.61973  Biso   1.000  Rb
  O336     1.0000 0.02390  0.45390  0.55788  Biso   1.000  O
  C651     1.0000 0.92350  0.35440  0.59300  Biso   1.000  C
  H505     1.0000 0.92220  0.33100  0.60360  Biso   1.000  H
  Rb58     1.0000 0.12477  0.56334  0.56157  Biso   1.000  Rb
  O337     1.0000 0.07910  0.61450  0.50050  Biso   1.000  O
  C652     1.0000 0.87200  0.35190  0.58720  Biso   1.000  C
  Rb59     1.0000 0.85510  0.22760  0.63378  Biso   1.000  Rb
  O338     1.0000 0.11710  0.68950  0.52060  Biso   1.000  O
  C653     1.0000 0.87740  0.38860  0.57131  Biso   1.000  C
  H506     1.0000 0.84660  0.39030  0.56700  Biso   1.000  H
  O339     1.0000 0.93610  0.52180  0.58209  Biso   1.000  O
  C654     1.0000 0.92900  0.42330  0.56142  Biso   1.000  C
  O340     1.0000 0.89700  0.57350  0.65760  Biso   1.000  O
  C655     1.0000 0.81990  0.31380  0.59650  Biso   1.000  C
  O341     1.0000 0.94620  0.54150  0.67710  Biso   1.000  O
  C656     1.0000 0.03240  0.42550  0.54070  Biso   1.000  C
  H507     1.0000 0.04830  0.40450  0.54590  Biso   1.000  H
  H508     1.0000 0.05670  0.45180  0.53070  Biso   1.000  H
  H509     1.0000 0.99790  0.40130  0.53420  Biso   1.000  H
  O342     1.0000 0.09690  0.60530  0.59930  Biso   1.000  O
  C657     1.0000 0.93040  0.46330  0.54500  Biso   1.000  C
  H510     1.0000 0.93670  0.45190  0.53150  Biso   1.000  H
  H511     1.0000 0.89460  0.46040  0.54450  Biso   1.000  H
  O343     1.0000 0.26290  0.55650  0.59710  Biso   1.000  O
  C658     1.0000 0.97280  0.52250  0.54820  Biso   1.000  C
  O344     1.0000 0.23260  0.48850  0.57580  Biso   1.000  O
  C659     1.0000 0.00680  0.55100  0.53310  Biso   1.000  C
  H512     1.0000 0.00530  0.53340  0.52070  Biso   1.000  H
  O345     1.0000 0.01320  0.44940  0.62384  Biso   1.000  O
  C660     1.0000 0.04620  0.60820  0.53520  Biso   1.000  C
  C661     1.0000 0.04780  0.63350  0.55430  Biso   1.000  C
  H513     1.0000 0.07290  0.67060  0.55630  Biso   1.000  H
  C662     1.0000 0.01210  0.60310  0.57010  Biso   1.000  C
  C663     1.0000 0.97270  0.54890  0.56750  Biso   1.000  C
  C664     1.0000 0.08460  0.63970  0.51570  Biso   1.000  C
  C665     1.0000 0.88920  0.52830  0.57800  Biso   1.000  C
  H514     1.0000 0.89420  0.56100  0.58470  Biso   1.000  H
  H515     1.0000 0.85660  0.49700  0.58320  Biso   1.000  H
  H516     1.0000 0.88570  0.53140  0.56320  Biso   1.000  H
  O346     1.0000 0.80800  0.43000  0.61320  Biso   1.000  O
  C666     1.0000 0.01230  0.63210  0.59120  Biso   1.000  C
  H517     1.0000 0.04300  0.66940  0.59060  Biso   1.000  H
  H518     1.0000 0.97910  0.63470  0.59140  Biso   1.000  H
  O347     1.0000 0.97800  0.13700  0.79730  Biso   1.000  O
  C667     1.0000 0.01560  0.60810  0.61140  Biso   1.000  C
  C668     1.0000 0.97780  0.59690  0.62560  Biso   1.000  C
  H519     1.0000 0.94880  0.60290  0.62270  Biso   1.000  H
  C669     1.0000 0.98060  0.57670  0.64440  Biso   1.000  C
  C670     1.0000 0.02570  0.56290  0.64470  Biso   1.000  C
  H520     1.0000 0.02670  0.54620  0.65710  Biso   1.000  H
  O348     1.0000 0.76740  0.16630  0.62740  Biso   1.000  O
  C671     1.0000 0.06260  0.56880  0.63200  Biso   1.000  C
  O349     1.0000 0.89000  0.15660  0.65550  Biso   1.000  O
  C672     1.0000 0.06070  0.59650  0.61390  Biso   1.000  C
  O350     1.0000 0.86890  0.14500  0.65720  Biso   1.000  O
  C673     1.0000 0.93640  0.56650  0.66030  Biso   1.000  C
  O351     1.0000 0.95390  0.23080  0.61022  Biso   1.000  O
  C674     1.0000 0.14390  0.65830  0.60410  Biso   1.000  C
  H521     1.0000 0.14660  0.68490  0.59410  Biso   1.000  H
  H522     1.0000 0.17680  0.65580  0.60370  Biso   1.000  H
  H523     1.0000 0.13970  0.66950  0.61780  Biso   1.000  H
  O352     1.0000 0.02830  0.25800  0.59020  Biso   1.000  O
  C675     1.0000 0.10030  0.55150  0.63790  Biso   1.000  C
  H524     1.0000 0.08710  0.52980  0.65050  Biso   1.000  H
  H525     1.0000 0.13540  0.58360  0.64100  Biso   1.000  H
  O353     1.0000 0.03500  0.23000  0.58970  Biso   1.000  O
  C676     1.0000 0.10900  0.51660  0.62080  Biso   1.000  C
  O354     1.0000 0.14070  0.40100  0.67148  Biso   1.000  O
  C677     1.0000 0.16140  0.52850  0.61130  Biso   1.000  C
  H526     1.0000 0.19310  0.56060  0.61520  Biso   1.000  H
  O355     1.0000 0.35230  0.56070  0.66910  Biso   1.000  O
  C678     1.0000 0.16580  0.49760  0.59810  Biso   1.000  C
  O356     1.0000 0.39100  0.53620  0.69110  Biso   1.000  O
  C679     1.0000 0.12610  0.45720  0.59240  Biso   1.000  C
  H527     1.0000 0.13090  0.43600  0.58230  Biso   1.000  H
  O357     1.0000 0.39000  0.51720  0.68890  Biso   1.000  O
  C680     1.0000 0.06830  0.43720  0.60000  Biso   1.000  C
  O358     1.0000 0.20520  0.31610  0.64028  Biso   1.000  O
  C681     1.0000 0.06310  0.46710  0.61490  Biso   1.000  C
  O359     1.0000 0.18500  0.11090  0.64800  Biso   1.000  O
  C682     1.0000 0.22620  0.51360  0.58960  Biso   1.000  C
  O360     1.0000 0.11110  0.06760  0.67120  Biso   1.000  O
  C683     1.0000 0.00740  0.41510  0.64060  Biso   1.000  C
  H528     1.0000 0.01930  0.38990  0.63650  Biso   1.000  H
  H529     1.0000 0.96950  0.39490  0.64470  Biso   1.000  H
  H530     1.0000 0.02930  0.43690  0.65210  Biso   1.000  H
  O361     1.0000 0.21780  0.31330  0.70338  Biso   1.000  O
  C684     1.0000 0.02180  0.38450  0.59180  Biso   1.000  C
  H531     1.0000 0.01080  0.35670  0.60260  Biso   1.000  H
  H532     1.0000 0.03510  0.37270  0.58000  Biso   1.000  H
  O362     1.0000 0.11890  0.34830  0.77170  Biso   1.000  O
  C685     1.0000 0.05350  0.32270  0.66100  Biso   1.000  C
  O363     1.0000 0.09960  0.40680  0.75520  Biso   1.000  O
  C686     1.0000 0.02090  0.28920  0.64500  Biso   1.000  C
  H533     1.0000 0.98420  0.26400  0.64760  Biso   1.000  H
  O364     1.0000 0.06050  0.23660  0.68313  Biso   1.000  O
  C687     1.0000 0.04170  0.29220  0.62490  Biso   1.000  C
  C688     1.0000 0.09840  0.33150  0.62080  Biso   1.000  C
  H534     1.0000 0.11270  0.33340  0.60760  Biso   1.000  H
  C689     1.0000 0.13190  0.36640  0.63619  Biso   1.000  C
  O365     1.0000 0.32440  0.47220  0.72480  Biso   1.000  O
  C690     1.0000 0.10760  0.36280  0.65620  Biso   1.000  C
  O366     1.0000 0.32610  0.44850  0.72170  Biso   1.000  O
  C691     1.0000 0.00420  0.25730  0.60710  Biso   1.000  C
  C692     1.0000 0.13870  0.45020  0.67080  Biso   1.000  C
  H535     1.0000 0.10220  0.44250  0.67400  Biso   1.000  H
  H536     1.0000 0.16390  0.47560  0.68090  Biso   1.000  H
  H537     1.0000 0.14890  0.46600  0.65710  Biso   1.000  H
  O367     1.0000 0.02850  0.09450  0.65620  Biso   1.000  O
  C693     1.0000 0.19120  0.40990  0.63180  Biso   1.000  C
  H538     1.0000 0.19400  0.44570  0.63240  Biso   1.000  H
  H539     1.0000 0.20010  0.40480  0.61760  Biso   1.000  H
  O368     1.0000 0.04280  0.09580  0.65000  Biso   1.000  O
  C694     1.0000 0.23350  0.41000  0.64626  Biso   1.000  C
  O369     1.0000 0.98540  0.14870  0.62680  Biso   1.000  O
  C695     1.0000 0.27080  0.45980  0.65510  Biso   1.000  C
  H540     1.0000 0.26830  0.49090  0.65210  Biso   1.000  H
  O370     1.0000 0.97430  0.15370  0.63330  Biso   1.000  O
  C696     1.0000 0.31300  0.46440  0.66886  Biso   1.000  C
  C697     1.0000 0.31490  0.41680  0.67320  Biso   1.000  C
  H541     1.0000 0.34190  0.41890  0.68210  Biso   1.000  H
  C698     1.0000 0.27860  0.36770  0.66470  Biso   1.000  C
  C699     1.0000 0.23890  0.36320  0.65045  Biso   1.000  C
  C700     1.0000 0.35290  0.52350  0.67680  Biso   1.000  C
  C701     1.0000 0.22910  0.31260  0.62060  Biso   1.000  C
  H542     1.0000 0.26600  0.32020  0.62300  Biso   1.000  H
  H543     1.0000 0.20750  0.27640  0.61490  Biso   1.000  H
  H544     1.0000 0.22960  0.33910  0.61100  Biso   1.000  H
  C702     1.0000 0.28380  0.31760  0.66960  Biso   1.000  C
  H545     1.0000 0.29800  0.30890  0.65720  Biso   1.000  H
  H546     1.0000 0.31120  0.32760  0.68050  Biso   1.000  H
  C703     1.0000 0.23150  0.26480  0.67650  Biso   1.000  C
  C704     1.0000 0.21370  0.21360  0.66760  Biso   1.000  C
  H547     1.0000 0.23350  0.21200  0.65630  Biso   1.000  H
  C705     1.0000 0.17000  0.16580  0.67390  Biso   1.000  C
  C706     1.0000 0.13860  0.16760  0.68870  Biso   1.000  C
  H548     1.0000 0.10670  0.13550  0.69250  Biso   1.000  H
  C707     1.0000 0.15280  0.21980  0.69950  Biso   1.000  C
  C708     1.0000 0.19970  0.26530  0.69290  Biso   1.000  C
  C709     1.0000 0.15540  0.10890  0.66140  Biso   1.000  C
  C710     1.0000 0.25240  0.31990  0.72140  Biso   1.000  C
  H549     1.0000 0.27180  0.30040  0.71900  Biso   1.000  H
  H550     1.0000 0.27830  0.35820  0.72340  Biso   1.000  H
  H551     1.0000 0.22980  0.30560  0.73360  Biso   1.000  H
  C711     1.0000 0.11940  0.21970  0.71740  Biso   1.000  C
  H552     1.0000 0.08670  0.18370  0.71820  Biso   1.000  H
  H553     1.0000 0.14030  0.22480  0.73010  Biso   1.000  H
  C712     1.0000 0.10170  0.26230  0.71696  Biso   1.000  C
  C713     1.0000 0.11080  0.29460  0.73437  Biso   1.000  C
  H554     1.0000 0.12790  0.28910  0.74580  Biso   1.000  H
  C714     1.0000 0.09580  0.33500  0.73600  Biso   1.000  C
  Rb60     1.0000 0.85878  0.21642  0.62838  Biso   1.000  Rb
  C715     1.0000 0.07020  0.34170  0.71859  Biso   1.000  C
  H555     1.0000 0.06040  0.36880  0.71880  Biso   1.000  H
  C716     1.0000 0.05860  0.30930  0.70075  Biso   1.000  C
  C717     1.0000 0.07480  0.27240  0.70040  Biso   1.000  C
  C718     1.0000 0.10650  0.36340  0.75520  Biso   1.000  C
  C719     1.0000 0.00610  0.18620  0.68430  Biso   1.000  C
  H556     1.0000 0.97780  0.19560  0.68300  Biso   1.000  H
  H557     1.0000 0.00280  0.16170  0.67320  Biso   1.000  H
  H558     1.0000 0.00250  0.16850  0.69750  Biso   1.000  H
  C720     1.0000 0.02990  0.31820  0.68190  Biso   1.000  C
  H559     1.0000 0.02840  0.35140  0.68440  Biso   1.000  H
  H560     1.0000 0.99230  0.28790  0.68160  Biso   1.000  H
  Rb61     1.0000 0.76557  0.54609  0.97589  Biso   1.000  Rb
  O371     1.0000 0.48017  0.60683  0.94043  Biso   1.000  O
  C721     1.0000 0.64077  0.75463  0.90197  Biso   1.000  C
  Rb62     1.0000 0.87795  0.74539  0.03995  Biso   1.000  Rb
  O372     1.0000 0.44867  0.65023  0.92653  Biso   1.000  O
  C722     1.0000 0.63737  0.71993  0.91803  Biso   1.000  C
  Rb63     1.0000 0.58110  0.78843  0.95306  Biso   1.000  Rb
  O373     1.0000 0.69057  0.78723  0.89121  Biso   1.000  O
  C723     1.0000 0.59017  0.68773  0.92633  Biso   1.000  C
  H561     1.0000 0.58887  0.66433  0.93693  Biso   1.000  H
  Rb64     1.0000 0.79144  0.89667  0.89490  Biso   1.000  Rb
  O374     1.0000 0.74577  0.94783  0.83383  Biso   1.000  O
  C724     1.0000 0.53867  0.68523  0.92053  Biso   1.000  C
  Rb65     1.0000 0.52177  0.56093  0.96711  Biso   1.000  Rb
  O375     1.0000 0.78377  0.02283  0.85393  Biso   1.000  O
  C725     1.0000 0.54407  0.72193  0.90464  Biso   1.000  C
  H562     1.0000 0.51327  0.72363  0.90033  Biso   1.000  H
  O376     1.0000 0.60277  0.85513  0.91542  Biso   1.000  O
  C726     1.0000 0.59567  0.75663  0.89475  Biso   1.000  C
  O377     1.0000 0.56367  0.90683  0.99093  Biso   1.000  O
  C727     1.0000 0.48657  0.64713  0.92983  Biso   1.000  C
  O378     1.0000 0.61287  0.87483  0.01043  Biso   1.000  O
  C728     1.0000 0.69907  0.75883  0.87403  Biso   1.000  C
  H563     1.0000 0.71497  0.73783  0.87923  Biso   1.000  H
  H564     1.0000 0.72337  0.78513  0.86403  Biso   1.000  H
  H565     1.0000 0.66457  0.73463  0.86753  Biso   1.000  H
  O379     1.0000 0.76357  0.93863  0.93263  Biso   1.000  O
  C729     1.0000 0.59707  0.79663  0.87833  Biso   1.000  C
  H566     1.0000 0.60337  0.78523  0.86483  Biso   1.000  H
  H567     1.0000 0.56127  0.79373  0.87783  Biso   1.000  H
  O380     1.0000 0.92957  0.88983  0.93043  Biso   1.000  O
  C730     1.0000 0.63947  0.85583  0.88153  Biso   1.000  C
  O381     1.0000 0.89927  0.82183  0.90913  Biso   1.000  O
  C731     1.0000 0.67347  0.88433  0.86643  Biso   1.000  C
  H568     1.0000 0.67197  0.86673  0.85403  Biso   1.000  H
  O382     1.0000 0.67987  0.78273  0.95717  Biso   1.000  O
  C732     1.0000 0.71287  0.94153  0.86853  Biso   1.000  C
  C733     1.0000 0.71447  0.96683  0.88763  Biso   1.000  C
  H569     1.0000 0.73957  0.00393  0.88963  Biso   1.000  H
  C734     1.0000 0.67877  0.93643  0.90343  Biso   1.000  C
  C735     1.0000 0.63937  0.88223  0.90083  Biso   1.000  C
  C736     1.0000 0.75127  0.97303  0.84903  Biso   1.000  C
  C737     1.0000 0.55587  0.86163  0.91133  Biso   1.000  C
  H570     1.0000 0.56087  0.89433  0.91803  Biso   1.000  H
  H571     1.0000 0.52327  0.83033  0.91653  Biso   1.000  H
  H572     1.0000 0.55237  0.86473  0.89653  Biso   1.000  H
  O383     1.0000 0.47467  0.76333  0.94653  Biso   1.000  O
  C738     1.0000 0.67897  0.96543  0.92453  Biso   1.000  C
  H573     1.0000 0.70967  0.00273  0.92393  Biso   1.000  H
  H574     1.0000 0.64577  0.96803  0.92473  Biso   1.000  H
  O384     1.0000 0.64467  0.47033  0.13063  Biso   1.000  O
  C739     1.0000 0.68227  0.94143  0.94473  Biso   1.000  C
  C740     1.0000 0.64447  0.93023  0.95893  Biso   1.000  C
  H575     1.0000 0.61547  0.93623  0.95603  Biso   1.000  H
  C741     1.0000 0.64727  0.91003  0.97773  Biso   1.000  C
  C742     1.0000 0.69237  0.89623  0.97803  Biso   1.000  C
  H576     1.0000 0.69337  0.87953  0.99043  Biso   1.000  H
  O385     1.0000 0.43407  0.49963  0.96073  Biso   1.000  O
  C743     1.0000 0.72927  0.90213  0.96533  Biso   1.000  C
  O386     1.0000 0.55667  0.48993  0.98883  Biso   1.000  O
  C744     1.0000 0.72737  0.92983  0.94723  Biso   1.000  C
  O387     1.0000 0.53557  0.47833  0.99053  Biso   1.000  O
  C745     1.0000 0.60307  0.89983  0.99363  Biso   1.000  C
  O388     1.0000 0.62057  0.56413  0.94355  Biso   1.000  O
  C746     1.0000 0.81057  0.99163  0.93743  Biso   1.000  C
  H577     1.0000 0.81327  0.01823  0.92743  Biso   1.000  H
  H578     1.0000 0.84347  0.98913  0.93703  Biso   1.000  H
  H579     1.0000 0.80637  0.00283  0.95113  Biso   1.000  H
  O389     1.0000 0.69497  0.59133  0.92353  Biso   1.000  O
  C747     1.0000 0.76697  0.88483  0.97123  Biso   1.000  C
  H580     1.0000 0.75377  0.86313  0.98383  Biso   1.000  H
  H581     1.0000 0.80207  0.91693  0.97433  Biso   1.000  H
  O390     1.0000 0.70167  0.56333  0.92303  Biso   1.000  O
  C748     1.0000 0.77567  0.84993  0.95413  Biso   1.000  C
  O391     1.0000 0.80737  0.73433  0.00481  Biso   1.000  O
  C749     1.0000 0.82807  0.86183  0.94463  Biso   1.000  C
  H582     1.0000 0.85977  0.89393  0.94853  Biso   1.000  H
  O392     1.0000 0.01897  0.89403  0.00243  Biso   1.000  O
  C750     1.0000 0.83247  0.83093  0.93143  Biso   1.000  C
  O393     1.0000 0.05767  0.86953  0.02443  Biso   1.000  O
  C751     1.0000 0.79277  0.79053  0.92573  Biso   1.000  C
  H583     1.0000 0.79757  0.76933  0.91563  Biso   1.000  H
  O394     1.0000 0.05667  0.85053  0.02223  Biso   1.000  O
  C752     1.0000 0.73497  0.77053  0.93333  Biso   1.000  C
  O395     1.0000 0.87187  0.64943  0.97361  Biso   1.000  O
  C753     1.0000 0.72977  0.80043  0.94823  Biso   1.000  C
  O396     1.0000 0.85167  0.44423  0.98133  Biso   1.000  O
  C754     1.0000 0.89287  0.84693  0.92293  Biso   1.000  C
  O397     1.0000 0.77777  0.40093  0.00453  Biso   1.000  O
  C755     1.0000 0.67407  0.74843  0.97393  Biso   1.000  C
  H584     1.0000 0.68597  0.72323  0.96983  Biso   1.000  H
  H585     1.0000 0.63617  0.72823  0.97803  Biso   1.000  H
  H586     1.0000 0.69597  0.77023  0.98543  Biso   1.000  H
  O398     1.0000 0.88447  0.64663  0.03671  Biso   1.000  O
  C756     1.0000 0.68847  0.71783  0.92513  Biso   1.000  C
  H587     1.0000 0.67747  0.69003  0.93593  Biso   1.000  H
  H588     1.0000 0.70177  0.70603  0.91333  Biso   1.000  H
  O399     1.0000 0.78557  0.68163  0.10503  Biso   1.000  O
  C757     1.0000 0.72017  0.65603  0.99433  Biso   1.000  C
  O400     1.0000 0.76627  0.74013  0.08853  Biso   1.000  O
  C758     1.0000 0.68757  0.62253  0.97833  Biso   1.000  C
  H589     1.0000 0.65087  0.59733  0.98093  Biso   1.000  H
  O401     1.0000 0.72717  0.56993  0.01646  Biso   1.000  O
  C759     1.0000 0.70837  0.62553  0.95823  Biso   1.000  C
  C760     1.0000 0.76507  0.66483  0.95413  Biso   1.000  C
  H590     1.0000 0.77937  0.66673  0.94093  Biso   1.000  H
  C761     1.0000 0.79857  0.69973  0.96952  Biso   1.000  C
  O402     1.0000 0.99107  0.80553  0.05813  Biso   1.000  O
  C762     1.0000 0.77427  0.69613  0.98953  Biso   1.000  C
  O403     1.0000 0.99277  0.78183  0.05503  Biso   1.000  O
  C763     1.0000 0.67087  0.59063  0.94043  Biso   1.000  C
  C764     1.0000 0.80537  0.78353  0.00413  Biso   1.000  C
  H591     1.0000 0.76887  0.77583  0.00733  Biso   1.000  H
  H592     1.0000 0.83057  0.80893  0.01423  Biso   1.000  H
  H593     1.0000 0.81557  0.79933  0.99043  Biso   1.000  H
  O404     1.0000 0.69517  0.42783  0.98953  Biso   1.000  O
  C765     1.0000 0.85787  0.74323  0.96513  Biso   1.000  C
  H594     1.0000 0.86067  0.77903  0.96573  Biso   1.000  H
  H595     1.0000 0.86677  0.73813  0.95093  Biso   1.000  H
  O405     1.0000 0.70947  0.42913  0.98333  Biso   1.000  O
  C766     1.0000 0.90017  0.74333  0.97959  Biso   1.000  C
  O406     1.0000 0.65207  0.48203  0.96013  Biso   1.000  O
  C767     1.0000 0.93747  0.79313  0.98843  Biso   1.000  C
  H596     1.0000 0.93497  0.82423  0.98543  Biso   1.000  H
  O407     1.0000 0.64097  0.48703  0.96663  Biso   1.000  O
  C768     1.0000 0.97967  0.79773  0.00219  Biso   1.000  C
  C769     1.0000 0.98157  0.75013  0.00653  Biso   1.000  C
  H597     1.0000 0.00857  0.75223  0.01543  Biso   1.000  H
  C770     1.0000 0.94527  0.70103  0.99803  Biso   1.000  C
  C771     1.0000 0.90557  0.69653  0.98378  Biso   1.000  C
  C772     1.0000 0.01957  0.85683  0.01013  Biso   1.000  C
  C773     1.0000 0.89577  0.64593  0.95393  Biso   1.000  C
  H598     1.0000 0.93267  0.65353  0.95633  Biso   1.000  H
  H599     1.0000 0.87417  0.60973  0.94823  Biso   1.000  H
  H600     1.0000 0.89627  0.67243  0.94433  Biso   1.000  H
  C774     1.0000 0.95047  0.65093  0.00293  Biso   1.000  C
  H601     1.0000 0.96467  0.64223  0.99053  Biso   1.000  H
  H602     1.0000 0.97787  0.66093  0.01383  Biso   1.000  H
  C775     1.0000 0.89817  0.59813  0.00983  Biso   1.000  C
  C776     1.0000 0.88037  0.54693  0.00093  Biso   1.000  C
  H603     1.0000 0.90017  0.54533  0.98963  Biso   1.000  H
  C777     1.0000 0.83667  0.49913  0.00723  Biso   1.000  C
  C778     1.0000 0.80527  0.50093  0.02203  Biso   1.000  C
  H604     1.0000 0.77337  0.46883  0.02583  Biso   1.000  H
  C779     1.0000 0.81947  0.55313  0.03283  Biso   1.000  C
  C780     1.0000 0.86637  0.59863  0.02623  Biso   1.000  C
  C781     1.0000 0.82207  0.44223  0.99473  Biso   1.000  C
  C782     1.0000 0.91907  0.65323  0.05473  Biso   1.000  C
  H605     1.0000 0.93847  0.63373  0.05233  Biso   1.000  H
  H606     1.0000 0.94497  0.69153  0.05673  Biso   1.000  H
  H607     1.0000 0.89647  0.63893  0.06693  Biso   1.000  H
  C783     1.0000 0.78607  0.55303  0.05073  Biso   1.000  C
  H608     1.0000 0.75337  0.51703  0.05153  Biso   1.000  H
  H609     1.0000 0.80697  0.55813  0.06343  Biso   1.000  H
  C784     1.0000 0.76837  0.59563  0.05029  Biso   1.000  C
  C785     1.0000 0.77747  0.62793  0.06770  Biso   1.000  C
  H610     1.0000 0.79457  0.62243  0.07913  Biso   1.000  H
  C786     1.0000 0.76247  0.66833  0.06933  Biso   1.000  C
  Rb66     1.0000 0.52545  0.54975  0.96171  Biso   1.000  Rb
  C787     1.0000 0.73687  0.67503  0.05192  Biso   1.000  C
  H611     1.0000 0.72707  0.70213  0.05213  Biso   1.000  H
  C788     1.0000 0.72527  0.64263  0.03408  Biso   1.000  C
  C789     1.0000 0.74147  0.60573  0.03373  Biso   1.000  C
  C790     1.0000 0.77317  0.69673  0.08853  Biso   1.000  C
  C791     1.0000 0.67277  0.51953  0.01763  Biso   1.000  C
  H612     1.0000 0.64447  0.52893  0.01633  Biso   1.000  H
  H613     1.0000 0.66947  0.49503  0.00653  Biso   1.000  H
  H614     1.0000 0.66917  0.50183  0.03083  Biso   1.000  H
  C792     1.0000 0.69657  0.65153  0.01523  Biso   1.000  C
  H615     1.0000 0.69507  0.68473  0.01773  Biso   1.000  H
  H616     1.0000 0.65897  0.62123  0.01493  Biso   1.000  H
  Rb67     1.0000 0.43223  0.87943  0.30923  Biso   1.000  Rb
  O408     1.0000 0.14683  0.94017  0.27377  Biso   1.000  O
  C793     1.0000 0.30743  0.08797  0.23531  Biso   1.000  C
  Rb68     1.0000 0.54461  0.07873  0.37329  Biso   1.000  Rb
  O409     1.0000 0.11533  0.98357  0.25987  Biso   1.000  O
  C794     1.0000 0.30403  0.05327  0.25137  Biso   1.000  C
  Rb69     1.0000 0.24776  0.12177  0.28640  Biso   1.000  Rb
  O410     1.0000 0.35723  0.12057  0.22455  Biso   1.000  O
  C795     1.0000 0.25683  0.02107  0.25967  Biso   1.000  C
  H617     1.0000 0.25553  0.99767  0.27027  Biso   1.000  H
  Rb70     1.0000 0.45810  0.23001  0.22824  Biso   1.000  Rb
  O411     1.0000 0.41243  0.28117  0.16717  Biso   1.000  O
  C796     1.0000 0.20533  0.01857  0.25387  Biso   1.000  C
  Rb71     1.0000 0.18843  0.89427  0.30045  Biso   1.000  Rb
  O412     1.0000 0.45043  0.35617  0.18727  Biso   1.000  O
  C797     1.0000 0.21073  0.05527  0.23798  Biso   1.000  C
  H618     1.0000 0.17993  0.05697  0.23367  Biso   1.000  H
  O413     1.0000 0.26943  0.18847  0.24876  Biso   1.000  O
  C798     1.0000 0.26233  0.08997  0.22809  Biso   1.000  C
  O414     1.0000 0.23033  0.24017  0.32427  Biso   1.000  O
  C799     1.0000 0.15323  0.98047  0.26317  Biso   1.000  C
  O415     1.0000 0.27953  0.20817  0.34377  Biso   1.000  O
  C800     1.0000 0.36573  0.09217  0.20737  Biso   1.000  C
  H619     1.0000 0.38163  0.07117  0.21257  Biso   1.000  H
  H620     1.0000 0.39003  0.11847  0.19737  Biso   1.000  H
  H621     1.0000 0.33123  0.06797  0.20087  Biso   1.000  H
  O416     1.0000 0.43023  0.27197  0.26597  Biso   1.000  O
  C801     1.0000 0.26373  0.12997  0.21167  Biso   1.000  C
  H622     1.0000 0.27003  0.11857  0.19817  Biso   1.000  H
  H623     1.0000 0.22793  0.12707  0.21117  Biso   1.000  H
  O417     1.0000 0.59623  0.22317  0.26377  Biso   1.000  O
  C802     1.0000 0.30613  0.18917  0.21487  Biso   1.000  C
  O418     1.0000 0.56593  0.15517  0.24247  Biso   1.000  O
  C803     1.0000 0.34013  0.21767  0.19977  Biso   1.000  C
  H624     1.0000 0.33863  0.20007  0.18737  Biso   1.000  H
  O419     1.0000 0.34653  0.11607  0.29051  Biso   1.000  O
  C804     1.0000 0.37953  0.27487  0.20187  Biso   1.000  C
  C805     1.0000 0.38113  0.30017  0.22097  Biso   1.000  C
  H625     1.0000 0.40623  0.33727  0.22297  Biso   1.000  H
  C806     1.0000 0.34543  0.26977  0.23677  Biso   1.000  C
  C807     1.0000 0.30603  0.21557  0.23417  Biso   1.000  C
  C808     1.0000 0.41793  0.30637  0.18237  Biso   1.000  C
  C809     1.0000 0.22253  0.19497  0.24467  Biso   1.000  C
  H626     1.0000 0.22753  0.22767  0.25137  Biso   1.000  H
  H627     1.0000 0.18993  0.16367  0.24987  Biso   1.000  H
  H628     1.0000 0.21903  0.19807  0.22987  Biso   1.000  H
  O420     1.0000 0.14133  0.09667  0.27987  Biso   1.000  O
  C810     1.0000 0.34563  0.29877  0.25787  Biso   1.000  C
  H629     1.0000 0.37633  0.33607  0.25727  Biso   1.000  H
  H630     1.0000 0.31243  0.30137  0.25807  Biso   1.000  H
  O421     1.0000 0.31133  0.80367  0.46397  Biso   1.000  O
  C811     1.0000 0.34893  0.27477  0.27807  Biso   1.000  C
  C812     1.0000 0.31113  0.26357  0.29227  Biso   1.000  C
  H631     1.0000 0.28213  0.26957  0.28937  Biso   1.000  H
  C813     1.0000 0.31393  0.24337  0.31107  Biso   1.000  C
  C814     1.0000 0.35903  0.22957  0.31137  Biso   1.000  C
  H632     1.0000 0.36003  0.21287  0.32377  Biso   1.000  H
  O422     1.0000 0.10073  0.83297  0.29407  Biso   1.000  O
  C815     1.0000 0.39593  0.23547  0.29867  Biso   1.000  C
  O423     1.0000 0.22333  0.82327  0.32217  Biso   1.000  O
  C816     1.0000 0.39403  0.26317  0.28057  Biso   1.000  C
  O424     1.0000 0.20223  0.81167  0.32387  Biso   1.000  O
  C817     1.0000 0.26973  0.23317  0.32697  Biso   1.000  C
  O425     1.0000 0.28723  0.89747  0.27689  Biso   1.000  O
  C818     1.0000 0.47723  0.32497  0.27077  Biso   1.000  C
  H633     1.0000 0.47993  0.35157  0.26077  Biso   1.000  H
  H634     1.0000 0.51013  0.32247  0.27037  Biso   1.000  H
  H635     1.0000 0.47303  0.33617  0.28447  Biso   1.000  H
  O426     1.0000 0.36163  0.92467  0.25687  Biso   1.000  O
  C819     1.0000 0.43363  0.21817  0.30457  Biso   1.000  C
  H636     1.0000 0.42043  0.19647  0.31717  Biso   1.000  H
  H637     1.0000 0.46873  0.25027  0.30767  Biso   1.000  H
  O427     1.0000 0.36833  0.89667  0.25637  Biso   1.000  O
  C820     1.0000 0.44233  0.18327  0.28747  Biso   1.000  C
  O428     1.0000 0.47403  0.06767  0.33815  Biso   1.000  O
  C821     1.0000 0.49473  0.19517  0.27797  Biso   1.000  C
  H638     1.0000 0.52643  0.22727  0.28187  Biso   1.000  H
  O429     1.0000 0.68563  0.22737  0.33577  Biso   1.000  O
  C822     1.0000 0.49913  0.16427  0.26477  Biso   1.000  C
  O430     1.0000 0.72433  0.20287  0.35777  Biso   1.000  O
  C823     1.0000 0.45943  0.12387  0.25907  Biso   1.000  C
  H639     1.0000 0.46423  0.10267  0.24897  Biso   1.000  H
  O431     1.0000 0.72333  0.18387  0.35557  Biso   1.000  O
  C824     1.0000 0.40163  0.10387  0.26667  Biso   1.000  C
  O432     1.0000 0.53853  0.98277  0.30695  Biso   1.000  O
  C825     1.0000 0.39643  0.13377  0.28157  Biso   1.000  C
  O433     1.0000 0.51833  0.77757  0.31467  Biso   1.000  O
  C826     1.0000 0.55953  0.18027  0.25627  Biso   1.000  C
  O434     1.0000 0.44443  0.73427  0.33787  Biso   1.000  O
  C827     1.0000 0.34073  0.08177  0.30727  Biso   1.000  C
  H640     1.0000 0.35263  0.05657  0.30317  Biso   1.000  H
  H641     1.0000 0.30283  0.06157  0.31137  Biso   1.000  H
  H642     1.0000 0.36263  0.10357  0.31877  Biso   1.000  H
  O435     1.0000 0.55113  0.97997  0.37005  Biso   1.000  O
  C828     1.0000 0.35513  0.05117  0.25847  Biso   1.000  C
  H643     1.0000 0.34413  0.02337  0.26927  Biso   1.000  H
  H644     1.0000 0.36843  0.03937  0.24667  Biso   1.000  H
  O436     1.0000 0.45223  0.01497  0.43837  Biso   1.000  O
  C829     1.0000 0.38683  0.98937  0.32767  Biso   1.000  C
  O437     1.0000 0.43293  0.07347  0.42187  Biso   1.000  O
  C830     1.0000 0.35423  0.95587  0.31167  Biso   1.000  C
  H645     1.0000 0.31753  0.93067  0.31427  Biso   1.000  H
  O438     1.0000 0.39383  0.90327  0.34980  Biso   1.000  O
  C831     1.0000 0.37503  0.95887  0.29157  Biso   1.000  C
  C832     1.0000 0.43173  0.99817  0.28747  Biso   1.000  C
  H646     1.0000 0.44603  0.00007  0.27427  Biso   1.000  H
  C833     1.0000 0.46523  0.03307  0.30286  Biso   1.000  C
  O439     1.0000 0.65773  0.13887  0.39147  Biso   1.000  O
  C834     1.0000 0.44093  0.02947  0.32287  Biso   1.000  C
  O440     1.0000 0.65943  0.11517  0.38837  Biso   1.000  O
  C835     1.0000 0.33753  0.92397  0.27377  Biso   1.000  C
  C836     1.0000 0.47203  0.11687  0.33747  Biso   1.000  C
  H647     1.0000 0.43553  0.10917  0.34067  Biso   1.000  H
  H648     1.0000 0.49723  0.14227  0.34757  Biso   1.000  H
  H649     1.0000 0.48223  0.13267  0.32377  Biso   1.000  H
  O441     1.0000 0.36183  0.76117  0.32287  Biso   1.000  O
  C837     1.0000 0.52453  0.07657  0.29847  Biso   1.000  C
  H650     1.0000 0.52733  0.11237  0.29907  Biso   1.000  H
  H651     1.0000 0.53343  0.07147  0.28427  Biso   1.000  H
  O442     1.0000 0.37613  0.76247  0.31667  Biso   1.000  O
  C838     1.0000 0.56683  0.07667  0.31293  Biso   1.000  C
  O443     1.0000 0.31873  0.81537  0.29347  Biso   1.000  O
  C839     1.0000 0.60413  0.12647  0.32177  Biso   1.000  C
  H652     1.0000 0.60163  0.15757  0.31877  Biso   1.000  H
  O444     1.0000 0.30763  0.82037  0.29997  Biso   1.000  O
  C840     1.0000 0.64633  0.13107  0.33553  Biso   1.000  C
  C841     1.0000 0.64823  0.08347  0.33987  Biso   1.000  C
  H653     1.0000 0.67523  0.08557  0.34877  Biso   1.000  H
  C842     1.0000 0.61193  0.03437  0.33137  Biso   1.000  C
  C843     1.0000 0.57223  0.02987  0.31712  Biso   1.000  C
  C844     1.0000 0.68623  0.19017  0.34347  Biso   1.000  C
  C845     1.0000 0.56243  0.97927  0.28727  Biso   1.000  C
  H654     1.0000 0.59933  0.98687  0.28967  Biso   1.000  H
  H655     1.0000 0.54083  0.94307  0.28157  Biso   1.000  H
  H656     1.0000 0.56293  0.00577  0.27767  Biso   1.000  H
  C846     1.0000 0.61713  0.98427  0.33627  Biso   1.000  C
  H657     1.0000 0.63133  0.97557  0.32387  Biso   1.000  H
  H658     1.0000 0.64453  0.99427  0.34717  Biso   1.000  H
  C847     1.0000 0.56483  0.93147  0.34317  Biso   1.000  C
  C848     1.0000 0.54703  0.88027  0.33427  Biso   1.000  C
  H659     1.0000 0.56683  0.87867  0.32297  Biso   1.000  H
  C849     1.0000 0.50333  0.83247  0.34057  Biso   1.000  C
  C850     1.0000 0.47193  0.83427  0.35537  Biso   1.000  C
  H660     1.0000 0.44003  0.80217  0.35917  Biso   1.000  H
  C851     1.0000 0.48613  0.88647  0.36617  Biso   1.000  C
  C852     1.0000 0.53303  0.93197  0.35957  Biso   1.000  C
  C853     1.0000 0.48873  0.77557  0.32807  Biso   1.000  C
  C854     1.0000 0.58573  0.98657  0.38807  Biso   1.000  C
  H661     1.0000 0.60513  0.96707  0.38567  Biso   1.000  H
  H662     1.0000 0.61163  0.02487  0.39007  Biso   1.000  H
  H663     1.0000 0.56313  0.97227  0.40027  Biso   1.000  H
  C855     1.0000 0.45273  0.88637  0.38407  Biso   1.000  C
  H664     1.0000 0.42003  0.85037  0.38487  Biso   1.000  H
  H665     1.0000 0.47363  0.89147  0.39677  Biso   1.000  H
  C856     1.0000 0.43503  0.92897  0.38363  Biso   1.000  C
  C857     1.0000 0.44413  0.96127  0.40104  Biso   1.000  C
  H666     1.0000 0.46123  0.95577  0.41247  Biso   1.000  H
  C858     1.0000 0.42913  0.00167  0.40267  Biso   1.000  C
  Rb72     1.0000 0.19211  0.88309  0.29505  Biso   1.000  Rb
  C859     1.0000 0.40353  0.00837  0.38526  Biso   1.000  C
  H667     1.0000 0.39373  0.03547  0.38547  Biso   1.000  H
  C860     1.0000 0.39193  0.97597  0.36742  Biso   1.000  C
  C861     1.0000 0.40813  0.93907  0.36707  Biso   1.000  C
  C862     1.0000 0.43983  0.03007  0.42187  Biso   1.000  C
  C863     1.0000 0.33943  0.85287  0.35097  Biso   1.000  C
  H668     1.0000 0.31113  0.86227  0.34967  Biso   1.000  H
  H669     1.0000 0.33613  0.82837  0.33987  Biso   1.000  H
  H670     1.0000 0.33583  0.83517  0.36417  Biso   1.000  H
  C864     1.0000 0.36323  0.98487  0.34857  Biso   1.000  C
  H671     1.0000 0.36173  0.01807  0.35107  Biso   1.000  H
  H672     1.0000 0.32563  0.95457  0.34827  Biso   1.000  H
  Rb73     1.0000 0.11386  0.90110  0.64256  Biso   1.000  Rb
  O445     1.0000 0.46000  0.18650  0.60710  Biso   1.000  O
  C865     1.0000 0.44720  0.02590  0.56864  Biso   1.000  C
  Rb74     1.0000 0.20078  0.78872  0.70662  Biso   1.000  Rb
  O446     1.0000 0.53490  0.21800  0.59320  Biso   1.000  O
  C866     1.0000 0.41590  0.02930  0.58470  Biso   1.000  C
  Rb75     1.0000 0.54067  0.08557  0.61973  Biso   1.000  Rb
  O447     1.0000 0.43000  0.97610  0.55788  Biso   1.000  O
  C867     1.0000 0.43090  0.07650  0.59300  Biso   1.000  C
  H673     1.0000 0.40880  0.07780  0.60360  Biso   1.000  H
  Rb76     1.0000 0.43857  0.87523  0.56157  Biso   1.000  Rb
  O448     1.0000 0.53540  0.92090  0.50050  Biso   1.000  O
  C868     1.0000 0.47990  0.12800  0.58720  Biso   1.000  C
  Rb77     1.0000 0.37250  0.14490  0.63378  Biso   1.000  Rb
  O449     1.0000 0.57240  0.88290  0.52060  Biso   1.000  O
  C869     1.0000 0.51120  0.12260  0.57131  Biso   1.000  C
  H674     1.0000 0.54370  0.15340  0.56700  Biso   1.000  H
  O450     1.0000 0.58570  0.06390  0.58209  Biso   1.000  O
  C870     1.0000 0.49430  0.07100  0.56142  Biso   1.000  C
  O451     1.0000 0.67650  0.10300  0.65760  Biso   1.000  O
  C871     1.0000 0.49390  0.18010  0.59650  Biso   1.000  C
  O452     1.0000 0.59530  0.05380  0.67710  Biso   1.000  O
  C872     1.0000 0.39310  0.96760  0.54070  Biso   1.000  C
  H675     1.0000 0.35620  0.95170  0.54590  Biso   1.000  H
  H676     1.0000 0.39510  0.94330  0.53070  Biso   1.000  H
  H677     1.0000 0.40340  0.00210  0.53420  Biso   1.000  H
  O453     1.0000 0.50840  0.90310  0.59930  Biso   1.000  O
  C873     1.0000 0.53290  0.06960  0.54500  Biso   1.000  C
  H678     1.0000 0.51520  0.06330  0.53150  Biso   1.000  H
  H679     1.0000 0.56580  0.10540  0.54450  Biso   1.000  H
  O454     1.0000 0.29360  0.73710  0.59710  Biso   1.000  O
  C874     1.0000 0.54970  0.02720  0.54820  Biso   1.000  C
  O455     1.0000 0.25590  0.76740  0.57580  Biso   1.000  O
  C875     1.0000 0.54420  0.99320  0.53310  Biso   1.000  C
  H680     1.0000 0.52810  0.99470  0.52070  Biso   1.000  H
  O456     1.0000 0.43620  0.98680  0.62384  Biso   1.000  O
  C876     1.0000 0.56200  0.95380  0.53520  Biso   1.000  C
  C877     1.0000 0.58570  0.95220  0.55430  Biso   1.000  C
  H681     1.0000 0.59770  0.92710  0.55630  Biso   1.000  H
  C878     1.0000 0.59100  0.98790  0.57010  Biso   1.000  C
  C879     1.0000 0.57620  0.02730  0.56750  Biso   1.000  C
  C880     1.0000 0.55510  0.91540  0.51570  Biso   1.000  C
  C881     1.0000 0.63910  0.11080  0.57800  Biso   1.000  C
  H682     1.0000 0.66680  0.10580  0.58470  Biso   1.000  H
  H683     1.0000 0.64040  0.14340  0.58320  Biso   1.000  H
  H684     1.0000 0.64570  0.11430  0.56320  Biso   1.000  H
  O457     1.0000 0.62200  0.19200  0.61320  Biso   1.000  O
  C882     1.0000 0.61980  0.98770  0.59120  Biso   1.000  C
  H685     1.0000 0.62640  0.95700  0.59060  Biso   1.000  H
  H686     1.0000 0.65560  0.02090  0.59140  Biso   1.000  H
  O458     1.0000 0.15900  0.02200  0.79730  Biso   1.000  O
  C883     1.0000 0.59250  0.98440  0.61140  Biso   1.000  C
  C884     1.0000 0.61910  0.02220  0.62560  Biso   1.000  C
  H687     1.0000 0.65410  0.05120  0.62270  Biso   1.000  H
  C885     1.0000 0.59610  0.01940  0.64440  Biso   1.000  C
  C886     1.0000 0.53720  0.97430  0.64470  Biso   1.000  C
  H688     1.0000 0.51950  0.97330  0.65710  Biso   1.000  H
  O459     1.0000 0.39890  0.23260  0.62740  Biso   1.000  O
  C887     1.0000 0.50620  0.93740  0.63200  Biso   1.000  C
  O460     1.0000 0.26660  0.11000  0.65550  Biso   1.000  O
  C888     1.0000 0.53580  0.93930  0.61390  Biso   1.000  C
  O461     1.0000 0.27610  0.13110  0.65720  Biso   1.000  O
  C889     1.0000 0.63010  0.06360  0.66030  Biso   1.000  C
  O462     1.0000 0.27690  0.04610  0.61022  Biso   1.000  O
  C890     1.0000 0.51440  0.85610  0.60410  Biso   1.000  C
  H689     1.0000 0.53830  0.85340  0.59410  Biso   1.000  H
  H690     1.0000 0.47900  0.82320  0.60370  Biso   1.000  H
  H691     1.0000 0.52980  0.86030  0.61780  Biso   1.000  H
  O463     1.0000 0.22970  0.97170  0.59020  Biso   1.000  O
  C891     1.0000 0.45120  0.89970  0.63790  Biso   1.000  C
  H692     1.0000 0.44270  0.91290  0.65050  Biso   1.000  H
  H693     1.0000 0.44820  0.86460  0.64100  Biso   1.000  H
  O464     1.0000 0.19500  0.96500  0.58970  Biso   1.000  O
  C892     1.0000 0.40760  0.89100  0.62080  Biso   1.000  C
  O465     1.0000 0.26030  0.85930  0.67148  Biso   1.000  O
  C893     1.0000 0.36710  0.83860  0.61130  Biso   1.000  C
  H694     1.0000 0.36750  0.80690  0.61520  Biso   1.000  H
  O466     1.0000 0.20840  0.64770  0.66910  Biso   1.000  O
  C894     1.0000 0.33180  0.83420  0.59810  Biso   1.000  C
  O467     1.0000 0.14520  0.60900  0.69110  Biso   1.000  O
  C895     1.0000 0.33110  0.87390  0.59240  Biso   1.000  C
  H695     1.0000 0.30510  0.86910  0.58230  Biso   1.000  H
  O468     1.0000 0.12720  0.61000  0.68890  Biso   1.000  O
  C896     1.0000 0.36890  0.93170  0.60000  Biso   1.000  C
  O469     1.0000 0.11090  0.79480  0.64028  Biso   1.000  O
  C897     1.0000 0.40400  0.93690  0.61490  Biso   1.000  C
  O470     1.0000 0.92590  0.81500  0.64800  Biso   1.000  O
  C898     1.0000 0.28740  0.77380  0.58960  Biso   1.000  C
  O471     1.0000 0.95650  0.88890  0.67120  Biso   1.000  O
  C899     1.0000 0.40770  0.99260  0.64060  Biso   1.000  C
  H696     1.0000 0.37060  0.98070  0.63650  Biso   1.000  H
  H697     1.0000 0.42540  0.03050  0.64470  Biso   1.000  H
  H698     1.0000 0.40760  0.97070  0.65210  Biso   1.000  H
  O472     1.0000 0.09550  0.78220  0.70338  Biso   1.000  O
  C900     1.0000 0.36270  0.97820  0.59180  Biso   1.000  C
  H699     1.0000 0.34590  0.98920  0.60260  Biso   1.000  H
  H700     1.0000 0.33760  0.96490  0.58000  Biso   1.000  H
  O473     1.0000 0.22940  0.88110  0.77170  Biso   1.000  O
  C901     1.0000 0.26920  0.94650  0.66100  Biso   1.000  C
  O474     1.0000 0.30720  0.90040  0.75520  Biso   1.000  O
  C902     1.0000 0.26830  0.97910  0.64500  Biso   1.000  C
  H701     1.0000 0.27980  0.01580  0.64760  Biso   1.000  H
  O475     1.0000 0.17610  0.93950  0.68313  Biso   1.000  O
  C903     1.0000 0.25050  0.95830  0.62490  Biso   1.000  C
  C904     1.0000 0.23310  0.90160  0.62080  Biso   1.000  C
  H702     1.0000 0.22070  0.88730  0.60760  Biso   1.000  H
  C905     1.0000 0.23450  0.86810  0.63619  Biso   1.000  C
  O476     1.0000 0.14780  0.67560  0.72480  Biso   1.000  O
  C906     1.0000 0.25520  0.89240  0.65620  Biso   1.000  C
  O477     1.0000 0.12240  0.67390  0.72170  Biso   1.000  O
  C907     1.0000 0.25310  0.99580  0.60710  Biso   1.000  C
  C908     1.0000 0.31150  0.86130  0.67080  Biso   1.000  C
  H703     1.0000 0.34030  0.89780  0.67400  Biso   1.000  H
  H704     1.0000 0.31170  0.83610  0.68090  Biso   1.000  H
  H705     1.0000 0.31710  0.85110  0.65710  Biso   1.000  H
  O478     1.0000 0.06600  0.97150  0.65620  Biso   1.000  O
  C909     1.0000 0.21870  0.80880  0.63180  Biso   1.000  C
  H706     1.0000 0.25170  0.80600  0.63240  Biso   1.000  H
  H707     1.0000 0.20470  0.79990  0.61760  Biso   1.000  H
  O479     1.0000 0.05300  0.95720  0.65000  Biso   1.000  O
  C910     1.0000 0.17650  0.76650  0.64626  Biso   1.000  C
  O480     1.0000 0.16330  0.01460  0.62680  Biso   1.000  O
  C911     1.0000 0.18900  0.72920  0.65510  Biso   1.000  C
  H708     1.0000 0.22260  0.73170  0.65210  Biso   1.000  H
  O481     1.0000 0.17940  0.02570  0.63330  Biso   1.000  O
  C912     1.0000 0.15140  0.68700  0.66886  Biso   1.000  C
  C913     1.0000 0.10190  0.68510  0.67320  Biso   1.000  C
  H709     1.0000 0.07700  0.65810  0.68210  Biso   1.000  H
  C914     1.0000 0.08910  0.72140  0.66470  Biso   1.000  C
  C915     1.0000 0.12430  0.76110  0.65045  Biso   1.000  C
  C916     1.0000 0.17060  0.64710  0.67680  Biso   1.000  C
  C917     1.0000 0.08350  0.77090  0.62060  Biso   1.000  C
  H710     1.0000 0.05420  0.73400  0.62300  Biso   1.000  H
  H711     1.0000 0.06890  0.79250  0.61490  Biso   1.000  H
  H712     1.0000 0.10950  0.77040  0.61100  Biso   1.000  H
  C918     1.0000 0.03380  0.71620  0.66960  Biso   1.000  C
  H713     1.0000 0.01090  0.70200  0.65720  Biso   1.000  H
  H714     1.0000 0.01640  0.68880  0.68050  Biso   1.000  H
  C919     1.0000 0.03330  0.76850  0.67650  Biso   1.000  C
  C920     1.0000 0.99990  0.78630  0.66760  Biso   1.000  C
  H715     1.0000 0.97850  0.76650  0.65630  Biso   1.000  H
  C921     1.0000 0.99580  0.83000  0.67390  Biso   1.000  C
  C922     1.0000 0.02900  0.86140  0.68870  Biso   1.000  C
  H716     1.0000 0.02880  0.89330  0.69250  Biso   1.000  H
  C923     1.0000 0.06700  0.84720  0.69950  Biso   1.000  C
  C924     1.0000 0.06560  0.80030  0.69290  Biso   1.000  C
  C925     1.0000 0.95350  0.84460  0.66140  Biso   1.000  C
  C926     1.0000 0.06750  0.74760  0.72140  Biso   1.000  C
  H717     1.0000 0.02860  0.72820  0.71900  Biso   1.000  H
  H718     1.0000 0.07990  0.72170  0.72340  Biso   1.000  H
  H719     1.0000 0.07580  0.77020  0.73360  Biso   1.000  H
  C927     1.0000 0.10030  0.88060  0.71740  Biso   1.000  C
  H720     1.0000 0.09700  0.91330  0.71820  Biso   1.000  H
  H721     1.0000 0.08450  0.85970  0.73010  Biso   1.000  H
  C928     1.0000 0.16060  0.89830  0.71696  Biso   1.000  C
  C929     1.0000 0.18380  0.88920  0.73437  Biso   1.000  C
  H722     1.0000 0.16120  0.87210  0.74580  Biso   1.000  H
  C930     1.0000 0.23920  0.90420  0.73600  Biso   1.000  C
  Rb78     1.0000 0.35764  0.14122  0.62838  Biso   1.000  Rb
  C931     1.0000 0.27150  0.92980  0.71859  Biso   1.000  C
  H723     1.0000 0.30840  0.93960  0.71880  Biso   1.000  H
  C932     1.0000 0.25070  0.94140  0.70075  Biso   1.000  C
  C933     1.0000 0.19760  0.92520  0.70040  Biso   1.000  C
  C934     1.0000 0.25690  0.89350  0.75520  Biso   1.000  C
  C935     1.0000 0.18010  0.99390  0.68430  Biso   1.000  C
  H724     1.0000 0.21780  0.02220  0.68300  Biso   1.000  H
  H725     1.0000 0.15890  0.99720  0.67320  Biso   1.000  H
  H726     1.0000 0.16600  0.99750  0.69750  Biso   1.000  H
  C936     1.0000 0.28830  0.97010  0.68190  Biso   1.000  C
  H727     1.0000 0.32300  0.97160  0.68440  Biso   1.000  H
  H728     1.0000 0.29560  0.00770  0.68160  Biso   1.000  H
  Rb79     1.0000 0.78053  0.23443  0.97589  Biso   1.000  Rb
  O482     1.0000 0.12667  0.51983  0.94043  Biso   1.000  O
  C937     1.0000 0.11387  0.35923  0.90197  Biso   1.000  C
  Rb80     1.0000 0.86745  0.12205  0.03995  Biso   1.000  Rb
  O483     1.0000 0.20157  0.55133  0.92653  Biso   1.000  O
  C938     1.0000 0.08257  0.36263  0.91803  Biso   1.000  C
  Rb81     1.0000 0.20734  0.41890  0.95306  Biso   1.000  Rb
  O484     1.0000 0.09667  0.30943  0.89121  Biso   1.000  O
  C939     1.0000 0.09757  0.40983  0.92633  Biso   1.000  C
  H729     1.0000 0.07547  0.41113  0.93693  Biso   1.000  H
  Rb82     1.0000 0.10524  0.20856  0.89490  Biso   1.000  Rb
  O485     1.0000 0.20207  0.25423  0.83383  Biso   1.000  O
  C940     1.0000 0.14657  0.46133  0.92053  Biso   1.000  C
  Rb83     1.0000 0.03917  0.47823  0.96711  Biso   1.000  Rb
  O486     1.0000 0.23907  0.21623  0.85393  Biso   1.000  O
  C941     1.0000 0.17787  0.45593  0.90464  Biso   1.000  C
  H730     1.0000 0.21037  0.48673  0.90033  Biso   1.000  H
  O487     1.0000 0.25237  0.39723  0.91542  Biso   1.000  O
  C942     1.0000 0.16097  0.40433  0.89475  Biso   1.000  C
  O488     1.0000 0.34317  0.43633  0.99093  Biso   1.000  O
  C943     1.0000 0.16057  0.51343  0.92983  Biso   1.000  C
  O489     1.0000 0.26197  0.38713  0.01043  Biso   1.000  O
  C944     1.0000 0.05977  0.30093  0.87403  Biso   1.000  C
  H731     1.0000 0.02287  0.28503  0.87923  Biso   1.000  H
  H732     1.0000 0.06177  0.27663  0.86403  Biso   1.000  H
  H733     1.0000 0.07007  0.33543  0.86753  Biso   1.000  H
  O490     1.0000 0.17507  0.23643  0.93263  Biso   1.000  O
  C945     1.0000 0.19957  0.40293  0.87833  Biso   1.000  C
  H734     1.0000 0.18187  0.39663  0.86483  Biso   1.000  H
  H735     1.0000 0.23247  0.43873  0.87783  Biso   1.000  H
  O491     1.0000 0.96027  0.07043  0.93043  Biso   1.000  O
  C946     1.0000 0.21637  0.36053  0.88153  Biso   1.000  C
  O492     1.0000 0.92257  0.10073  0.90913  Biso   1.000  O
  C947     1.0000 0.21087  0.32653  0.86643  Biso   1.000  C
  H736     1.0000 0.19477  0.32803  0.85403  Biso   1.000  H
  O493     1.0000 0.10287  0.32013  0.95717  Biso   1.000  O
  C948     1.0000 0.22867  0.28713  0.86853  Biso   1.000  C
  C949     1.0000 0.25237  0.28553  0.88763  Biso   1.000  C
  H737     1.0000 0.26437  0.26043  0.88963  Biso   1.000  H
  C950     1.0000 0.25767  0.32123  0.90343  Biso   1.000  C
  C951     1.0000 0.24287  0.36063  0.90083  Biso   1.000  C
  C952     1.0000 0.22177  0.24873  0.84903  Biso   1.000  C
  C953     1.0000 0.30577  0.44413  0.91133  Biso   1.000  C
  H738     1.0000 0.33347  0.43913  0.91803  Biso   1.000  H
  H739     1.0000 0.30707  0.47673  0.91653  Biso   1.000  H
  H740     1.0000 0.31237  0.44763  0.89653  Biso   1.000  H
  O494     1.0000 0.28867  0.52533  0.94653  Biso   1.000  O
  C954     1.0000 0.28647  0.32103  0.92453  Biso   1.000  C
  H741     1.0000 0.29307  0.29033  0.92393  Biso   1.000  H
  H742     1.0000 0.32227  0.35423  0.92473  Biso   1.000  H
  O495     1.0000 0.82567  0.35533  0.13063  Biso   1.000  O
  C955     1.0000 0.25917  0.31773  0.94473  Biso   1.000  C
  C956     1.0000 0.28577  0.35553  0.95893  Biso   1.000  C
  H743     1.0000 0.32077  0.38453  0.95603  Biso   1.000  H
  C957     1.0000 0.26277  0.35273  0.97773  Biso   1.000  C
  C958     1.0000 0.20387  0.30763  0.97803  Biso   1.000  C
  H744     1.0000 0.18617  0.30663  0.99043  Biso   1.000  H
  O496     1.0000 0.06557  0.56593  0.96073  Biso   1.000  O
  C959     1.0000 0.17287  0.27073  0.96533  Biso   1.000  C
  O497     1.0000 0.93327  0.44333  0.98883  Biso   1.000  O
  C960     1.0000 0.20247  0.27263  0.94723  Biso   1.000  C
  O498     1.0000 0.94277  0.46443  0.99053  Biso   1.000  O
  C961     1.0000 0.29677  0.39693  0.99363  Biso   1.000  C
  O499     1.0000 0.94357  0.37943  0.94355  Biso   1.000  O
  C962     1.0000 0.18107  0.18943  0.93743  Biso   1.000  C
  H745     1.0000 0.20497  0.18673  0.92743  Biso   1.000  H
  H746     1.0000 0.14567  0.15653  0.93703  Biso   1.000  H
  H747     1.0000 0.19647  0.19363  0.95113  Biso   1.000  H
  O500     1.0000 0.89637  0.30503  0.92353  Biso   1.000  O
  C963     1.0000 0.11787  0.23303  0.97123  Biso   1.000  C
  H748     1.0000 0.10937  0.24623  0.98383  Biso   1.000  H
  H749     1.0000 0.11487  0.19793  0.97433  Biso   1.000  H
  O501     1.0000 0.86167  0.29833  0.92303  Biso   1.000  O
  C964     1.0000 0.07427  0.22433  0.95413  Biso   1.000  C
  O502     1.0000 0.92697  0.19263  0.00481  Biso   1.000  O
  C965     1.0000 0.03377  0.17193  0.94463  Biso   1.000  C
  H750     1.0000 0.03417  0.14023  0.94853  Biso   1.000  H
  O503     1.0000 0.87507  0.98103  0.00243  Biso   1.000  O
  C966     1.0000 0.99847  0.16753  0.93143  Biso   1.000  C
  O504     1.0000 0.81187  0.94233  0.02443  Biso   1.000  O
  C967     1.0000 0.99777  0.20723  0.92573  Biso   1.000  C
  H751     1.0000 0.97177  0.20243  0.91563  Biso   1.000  H
  O505     1.0000 0.79387  0.94333  0.02223  Biso   1.000  O
  C968     1.0000 0.03557  0.26503  0.93333  Biso   1.000  C
  O506     1.0000 0.77757  0.12813  0.97361  Biso   1.000  O
  C969     1.0000 0.07067  0.27023  0.94823  Biso   1.000  C
  O507     1.0000 0.59257  0.14833  0.98133  Biso   1.000  O
  C970     1.0000 0.95407  0.10713  0.92293  Biso   1.000  C
  O508     1.0000 0.62317  0.22223  0.00453  Biso   1.000  O
  C971     1.0000 0.07437  0.32593  0.97393  Biso   1.000  C
  H752     1.0000 0.03727  0.31403  0.96983  Biso   1.000  H
  H753     1.0000 0.09207  0.36383  0.97803  Biso   1.000  H
  H754     1.0000 0.07427  0.30403  0.98543  Biso   1.000  H
  O509     1.0000 0.76217  0.11553  0.03671  Biso   1.000  O
  C972     1.0000 0.02937  0.31153  0.92513  Biso   1.000  C
  H755     1.0000 0.01257  0.32253  0.93593  Biso   1.000  H
  H756     1.0000 0.00427  0.29823  0.91333  Biso   1.000  H
  O510     1.0000 0.89607  0.21443  0.10503  Biso   1.000  O
  C973     1.0000 0.93587  0.27983  0.99433  Biso   1.000  C
  O511     1.0000 0.97387  0.23373  0.08853  Biso   1.000  O
  C974     1.0000 0.93497  0.31243  0.97833  Biso   1.000  C
  H757     1.0000 0.94647  0.34913  0.98093  Biso   1.000  H
  O512     1.0000 0.84277  0.27283  0.01646  Biso   1.000  O
  C975     1.0000 0.91717  0.29163  0.95823  Biso   1.000  C
  C976     1.0000 0.89977  0.23493  0.95413  Biso   1.000  C
  H758     1.0000 0.88737  0.22063  0.94093  Biso   1.000  H
  C977     1.0000 0.90117  0.20143  0.96952  Biso   1.000  C
  O513     1.0000 0.81447  0.00893  0.05813  Biso   1.000  O
  C978     1.0000 0.92187  0.22573  0.98953  Biso   1.000  C
  O514     1.0000 0.78907  0.00723  0.05503  Biso   1.000  O
  C979     1.0000 0.91977  0.32913  0.94043  Biso   1.000  C
  C980     1.0000 0.97817  0.19463  0.00413  Biso   1.000  C
  H759     1.0000 0.00697  0.23113  0.00733  Biso   1.000  H
  H760     1.0000 0.97837  0.16943  0.01423  Biso   1.000  H
  H761     1.0000 0.98377  0.18443  0.99043  Biso   1.000  H
  O515     1.0000 0.73267  0.30483  0.98953  Biso   1.000  O
  C981     1.0000 0.88537  0.14213  0.96513  Biso   1.000  C
  H762     1.0000 0.91837  0.13933  0.96573  Biso   1.000  H
  H763     1.0000 0.87137  0.13323  0.95093  Biso   1.000  H
  O516     1.0000 0.71967  0.29053  0.98333  Biso   1.000  O
  C982     1.0000 0.84317  0.09983  0.97959  Biso   1.000  C
  O517     1.0000 0.82997  0.34793  0.96013  Biso   1.000  O
  C983     1.0000 0.85567  0.06253  0.98843  Biso   1.000  C
  H764     1.0000 0.88927  0.06503  0.98543  Biso   1.000  H
  O518     1.0000 0.84607  0.35903  0.96663  Biso   1.000  O
  C984     1.0000 0.81807  0.02033  0.00219  Biso   1.000  C
  C985     1.0000 0.76857  0.01843  0.00653  Biso   1.000  C
  H765     1.0000 0.74367  0.99143  0.01543  Biso   1.000  H
  C986     1.0000 0.75577  0.05473  0.99803  Biso   1.000  C
  C987     1.0000 0.79097  0.09443  0.98378  Biso   1.000  C
  C988     1.0000 0.83727  0.98043  0.01013  Biso   1.000  C
  C989     1.0000 0.75017  0.10423  0.95393  Biso   1.000  C
  H766     1.0000 0.72087  0.06733  0.95633  Biso   1.000  H
  H767     1.0000 0.73557  0.12583  0.94823  Biso   1.000  H
  H768     1.0000 0.77617  0.10373  0.94433  Biso   1.000  H
  C990     1.0000 0.70047  0.04953  0.00293  Biso   1.000  C
  H769     1.0000 0.67757  0.03533  0.99053  Biso   1.000  H
  H770     1.0000 0.68307  0.02213  0.01383  Biso   1.000  H
  C991     1.0000 0.69997  0.10183  0.00983  Biso   1.000  C
  C992     1.0000 0.66657  0.11963  0.00093  Biso   1.000  C
  H771     1.0000 0.64517  0.09983  0.98963  Biso   1.000  H
  C993     1.0000 0.66247  0.16333  0.00723  Biso   1.000  C
  C994     1.0000 0.69567  0.19473  0.02203  Biso   1.000  C
  H772     1.0000 0.69547  0.22663  0.02583  Biso   1.000  H
  C995     1.0000 0.73367  0.18053  0.03283  Biso   1.000  C
  C996     1.0000 0.73227  0.13363  0.02623  Biso   1.000  C
  C997     1.0000 0.62017  0.17793  0.99473  Biso   1.000  C
  C998     1.0000 0.73417  0.08093  0.05473  Biso   1.000  C
  H773     1.0000 0.69527  0.06153  0.05233  Biso   1.000  H
  H774     1.0000 0.74657  0.05503  0.05673  Biso   1.000  H
  H775     1.0000 0.74247  0.10353  0.06693  Biso   1.000  H
  C999     1.0000 0.76697  0.21393  0.05073  Biso   1.000  C
  H776     1.0000 0.76367  0.24663  0.05153  Biso   1.000  H
  H777     1.0000 0.75117  0.19303  0.06343  Biso   1.000  H
  C1000    1.0000 0.82727  0.23163  0.05029  Biso   1.000  C
  C1001    1.0000 0.85047  0.22253  0.06770  Biso   1.000  C
  H778     1.0000 0.82787  0.20543  0.07913  Biso   1.000  H
  C1002    1.0000 0.90587  0.23753  0.06933  Biso   1.000  C
  Rb84     1.0000 0.02431  0.47455  0.96171  Biso   1.000  Rb
  C1003    1.0000 0.93817  0.26313  0.05192  Biso   1.000  C
  H779     1.0000 0.97507  0.27293  0.05213  Biso   1.000  H
  C1004    1.0000 0.91737  0.27473  0.03408  Biso   1.000  C
  C1005    1.0000 0.86427  0.25853  0.03373  Biso   1.000  C
  C1006    1.0000 0.92357  0.22683  0.08853  Biso   1.000  C
  C1007    1.0000 0.84677  0.32723  0.01763  Biso   1.000  C
  H780     1.0000 0.88447  0.35553  0.01633  Biso   1.000  H
  H781     1.0000 0.82557  0.33053  0.00653  Biso   1.000  H
  H782     1.0000 0.83267  0.33083  0.03083  Biso   1.000  H
  C1008    1.0000 0.95497  0.30343  0.01523  Biso   1.000  C
  H783     1.0000 0.98967  0.30493  0.01773  Biso   1.000  H
  H784     1.0000 0.96227  0.34103  0.01493  Biso   1.000  H
  Rb85     1.0000 0.44719  0.56777  0.30923  Biso   1.000  Rb
  O519     1.0000 0.79333  0.85317  0.27377  Biso   1.000  O
  C1009    1.0000 0.78053  0.69257  0.23531  Biso   1.000  C
  Rb86     1.0000 0.53411  0.45539  0.37329  Biso   1.000  Rb
  O520     1.0000 0.86823  0.88467  0.25987  Biso   1.000  O
  C1010    1.0000 0.74923  0.69597  0.25137  Biso   1.000  C
  Rb87     1.0000 0.87400  0.75224  0.28640  Biso   1.000  Rb
  O521     1.0000 0.76333  0.64277  0.22455  Biso   1.000  O
  C1011    1.0000 0.76423  0.74317  0.25967  Biso   1.000  C
  H785     1.0000 0.74213  0.74447  0.27027  Biso   1.000  H
  Rb88     1.0000 0.77190  0.54190  0.22824  Biso   1.000  Rb
  O522     1.0000 0.86873  0.58757  0.16717  Biso   1.000  O
  C1012    1.0000 0.81323  0.79467  0.25387  Biso   1.000  C
  Rb89     1.0000 0.70583  0.81157  0.30045  Biso   1.000  Rb
  O523     1.0000 0.90573  0.54957  0.18727  Biso   1.000  O
  C1013    1.0000 0.84453  0.78927  0.23798  Biso   1.000  C
  H786     1.0000 0.87703  0.82007  0.23367  Biso   1.000  H
  O524     1.0000 0.91903  0.73057  0.24876  Biso   1.000  O
  C1014    1.0000 0.82763  0.73767  0.22809  Biso   1.000  C
  O525     1.0000 0.00983  0.76967  0.32427  Biso   1.000  O
  C1015    1.0000 0.82723  0.84677  0.26317  Biso   1.000  C
  O526     1.0000 0.92863  0.72047  0.34377  Biso   1.000  O
  C1016    1.0000 0.72643  0.63427  0.20737  Biso   1.000  C
  H787     1.0000 0.68953  0.61837  0.21257  Biso   1.000  H
  H788     1.0000 0.72843  0.60997  0.19737  Biso   1.000  H
  H789     1.0000 0.73673  0.66877  0.20087  Biso   1.000  H
  O527     1.0000 0.84173  0.56977  0.26597  Biso   1.000  O
  C1017    1.0000 0.86623  0.73627  0.21167  Biso   1.000  C
  H790     1.0000 0.84853  0.72997  0.19817  Biso   1.000  H
  H791     1.0000 0.89913  0.77207  0.21117  Biso   1.000  H
  O528     1.0000 0.62693  0.40377  0.26377  Biso   1.000  O
  C1018    1.0000 0.88303  0.69387  0.21487  Biso   1.000  C
  O529     1.0000 0.58923  0.43407  0.24247  Biso   1.000  O
  C1019    1.0000 0.87753  0.65987  0.19977  Biso   1.000  C
  H792     1.0000 0.86143  0.66137  0.18737  Biso   1.000  H
  O530     1.0000 0.76953  0.65347  0.29051  Biso   1.000  O
  C1020    1.0000 0.89533  0.62047  0.20187  Biso   1.000  C
  C1021    1.0000 0.91903  0.61887  0.22097  Biso   1.000  C
  H793     1.0000 0.93103  0.59377  0.22297  Biso   1.000  H
  C1022    1.0000 0.92433  0.65457  0.23677  Biso   1.000  C
  C1023    1.0000 0.90953  0.69397  0.23417  Biso   1.000  C
  C1024    1.0000 0.88843  0.58207  0.18237  Biso   1.000  C
  C1025    1.0000 0.97243  0.77747  0.24467  Biso   1.000  C
  H794     1.0000 0.00013  0.77247  0.25137  Biso   1.000  H
  H795     1.0000 0.97373  0.81007  0.24987  Biso   1.000  H
  H796     1.0000 0.97903  0.78097  0.22987  Biso   1.000  H
  O531     1.0000 0.95533  0.85867  0.27987  Biso   1.000  O
  C1026    1.0000 0.95313  0.65437  0.25787  Biso   1.000  C
  H797     1.0000 0.95973  0.62367  0.25727  Biso   1.000  H
  H798     1.0000 0.98893  0.68757  0.25807  Biso   1.000  H
  O532     1.0000 0.49233  0.68867  0.46397  Biso   1.000  O
  C1027    1.0000 0.92583  0.65107  0.27807  Biso   1.000  C
  C1028    1.0000 0.95243  0.68887  0.29227  Biso   1.000  C
  H799     1.0000 0.98743  0.71787  0.28937  Biso   1.000  H
  C1029    1.0000 0.92943  0.68607  0.31107  Biso   1.000  C
  C1030    1.0000 0.87053  0.64097  0.31137  Biso   1.000  C
  H800     1.0000 0.85283  0.63997  0.32377  Biso   1.000  H
  O533     1.0000 0.73223  0.89927  0.29407  Biso   1.000  O
  C1031    1.0000 0.83953  0.60407  0.29867  Biso   1.000  C
  O534     1.0000 0.59993  0.77667  0.32217  Biso   1.000  O
  C1032    1.0000 0.86913  0.60597  0.28057  Biso   1.000  C
  O535     1.0000 0.60943  0.79777  0.32387  Biso   1.000  O
  C1033    1.0000 0.96343  0.73027  0.32697  Biso   1.000  C
  O536     1.0000 0.61023  0.71277  0.27689  Biso   1.000  O
  C1034    1.0000 0.84773  0.52277  0.27077  Biso   1.000  C
  H801     1.0000 0.87163  0.52007  0.26077  Biso   1.000  H
  H802     1.0000 0.81233  0.48987  0.27037  Biso   1.000  H
  H803     1.0000 0.86313  0.52697  0.28447  Biso   1.000  H
  O537     1.0000 0.56303  0.63837  0.25687  Biso   1.000  O
  C1035    1.0000 0.78453  0.56637  0.30457  Biso   1.000  C
  H804     1.0000 0.77603  0.57957  0.31717  Biso   1.000  H
  H805     1.0000 0.78153  0.53127  0.30767  Biso   1.000  H
  O538     1.0000 0.52833  0.63167  0.25637  Biso   1.000  O
  C1036    1.0000 0.74093  0.55767  0.28747  Biso   1.000  C
  O539     1.0000 0.59363  0.52597  0.33815  Biso   1.000  O
  C1037    1.0000 0.70043  0.50527  0.27797  Biso   1.000  C
  H806     1.0000 0.70083  0.47357  0.28187  Biso   1.000  H
  O540     1.0000 0.54173  0.31437  0.33577  Biso   1.000  O
  C1038    1.0000 0.66513  0.50087  0.26477  Biso   1.000  C
  O541     1.0000 0.47853  0.27567  0.35777  Biso   1.000  O
  C1039    1.0000 0.66443  0.54057  0.25907  Biso   1.000  C
  H807     1.0000 0.63843  0.53577  0.24897  Biso   1.000  H
  O542     1.0000 0.46053  0.27667  0.35557  Biso   1.000  O
  C1040    1.0000 0.70223  0.59837  0.26667  Biso   1.000  C
  O543     1.0000 0.44423  0.46147  0.30695  Biso   1.000  O
  C1041    1.0000 0.73733  0.60357  0.28157  Biso   1.000  C
  O544     1.0000 0.25923  0.48167  0.31467  Biso   1.000  O
  C1042    1.0000 0.62073  0.44047  0.25627  Biso   1.000  C
  O545     1.0000 0.28983  0.55557  0.33787  Biso   1.000  O
  C1043    1.0000 0.74103  0.65927  0.30727  Biso   1.000  C
  H808     1.0000 0.70393  0.64737  0.30317  Biso   1.000  H
  H809     1.0000 0.75873  0.69717  0.31137  Biso   1.000  H
  H810     1.0000 0.74093  0.63737  0.31877  Biso   1.000  H
  O546     1.0000 0.42883  0.44887  0.37005  Biso   1.000  O
  C1044    1.0000 0.69603  0.64487  0.25847  Biso   1.000  C
  H811     1.0000 0.67923  0.65587  0.26927  Biso   1.000  H
  H812     1.0000 0.67093  0.63157  0.24667  Biso   1.000  H
  O547     1.0000 0.56273  0.54777  0.43837  Biso   1.000  O
  C1045    1.0000 0.60253  0.61317  0.32767  Biso   1.000  C
  O548     1.0000 0.64053  0.56707  0.42187  Biso   1.000  O
  C1046    1.0000 0.60163  0.64577  0.31167  Biso   1.000  C
  H813     1.0000 0.61313  0.68247  0.31427  Biso   1.000  H
  O549     1.0000 0.50943  0.60617  0.34980  Biso   1.000  O
  C1047    1.0000 0.58383  0.62497  0.29157  Biso   1.000  C
  C1048    1.0000 0.56643  0.56827  0.28747  Biso   1.000  C
  H814     1.0000 0.55403  0.55397  0.27427  Biso   1.000  H
  C1049    1.0000 0.56783  0.53477  0.30286  Biso   1.000  C
  O550     1.0000 0.48113  0.34227  0.39147  Biso   1.000  O
  C1050    1.0000 0.58853  0.55907  0.32287  Biso   1.000  C
  O551     1.0000 0.45573  0.34057  0.38837  Biso   1.000  O
  C1051    1.0000 0.58643  0.66247  0.27377  Biso   1.000  C
  C1052    1.0000 0.64483  0.52797  0.33747  Biso   1.000  C
  H815     1.0000 0.67363  0.56447  0.34067  Biso   1.000  H
  H816     1.0000 0.64503  0.50277  0.34757  Biso   1.000  H
  H817     1.0000 0.65043  0.51777  0.32377  Biso   1.000  H
  O552     1.0000 0.39933  0.63817  0.32287  Biso   1.000  O
  C1053    1.0000 0.55203  0.47547  0.29847  Biso   1.000  C
  H818     1.0000 0.58503  0.47267  0.29907  Biso   1.000  H
  H819     1.0000 0.53803  0.46657  0.28427  Biso   1.000  H
  O553     1.0000 0.38633  0.62387  0.31667  Biso   1.000  O
  C1054    1.0000 0.50983  0.43317  0.31293  Biso   1.000  C
  O554     1.0000 0.49663  0.68127  0.29347  Biso   1.000  O
  C1055    1.0000 0.52233  0.39587  0.32177  Biso   1.000  C
  H820     1.0000 0.55593  0.39837  0.31877  Biso   1.000  H
  O555     1.0000 0.51273  0.69237  0.29997  Biso   1.000  O
  C1056    1.0000 0.48473  0.35367  0.33553  Biso   1.000  C
  C1057    1.0000 0.43523  0.35177  0.33987  Biso   1.000  C
  H821     1.0000 0.41033  0.32477  0.34877  Biso   1.000  H
  C1058    1.0000 0.42243  0.38807  0.33137  Biso   1.000  C
  C1059    1.0000 0.45763  0.42777  0.31712  Biso   1.000  C
  C1060    1.0000 0.50393  0.31377  0.34347  Biso   1.000  C
  C1061    1.0000 0.41683  0.43757  0.28727  Biso   1.000  C
  H822     1.0000 0.38753  0.40067  0.28967  Biso   1.000  H
  H823     1.0000 0.40223  0.45917  0.28157  Biso   1.000  H
  H824     1.0000 0.44283  0.43707  0.27767  Biso   1.000  H
  C1062    1.0000 0.36713  0.38287  0.33627  Biso   1.000  C
  H825     1.0000 0.34423  0.36867  0.32387  Biso   1.000  H
  H826     1.0000 0.34973  0.35547  0.34717  Biso   1.000  H
  C1063    1.0000 0.36663  0.43517  0.34317  Biso   1.000  C
  C1064    1.0000 0.33323  0.45297  0.33427  Biso   1.000  C
  H827     1.0000 0.31183  0.43317  0.32297  Biso   1.000  H
  C1065    1.0000 0.32913  0.49667  0.34057  Biso   1.000  C
  C1066    1.0000 0.36233  0.52807  0.35537  Biso   1.000  C
  H828     1.0000 0.36213  0.55997  0.35917  Biso   1.000  H
  C1067    1.0000 0.40033  0.51387  0.36617  Biso   1.000  C
  C1068    1.0000 0.39893  0.46697  0.35957  Biso   1.000  C
  C1069    1.0000 0.28683  0.51127  0.32807  Biso   1.000  C
  C1070    1.0000 0.40083  0.41427  0.38807  Biso   1.000  C
  H829     1.0000 0.36193  0.39487  0.38567  Biso   1.000  H
  H830     1.0000 0.41323  0.38837  0.39007  Biso   1.000  H
  H831     1.0000 0.40913  0.43687  0.40027  Biso   1.000  H
  C1071    1.0000 0.43363  0.54727  0.38407  Biso   1.000  C
  H832     1.0000 0.43033  0.57997  0.38487  Biso   1.000  H
  H833     1.0000 0.41783  0.52637  0.39677  Biso   1.000  H
  C1072    1.0000 0.49393  0.56497  0.38363  Biso   1.000  C
  C1073    1.0000 0.51713  0.55587  0.40104  Biso   1.000  C
  H834     1.0000 0.49453  0.53877  0.41247  Biso   1.000  H
  C1074    1.0000 0.57253  0.57087  0.40267  Biso   1.000  C
  Rb90     1.0000 0.69097  0.80789  0.29505  Biso   1.000  Rb
  C1075    1.0000 0.60483  0.59647  0.38526  Biso   1.000  C
  H835     1.0000 0.64173  0.60627  0.38547  Biso   1.000  H
  C1076    1.0000 0.58403  0.60807  0.36742  Biso   1.000  C
  C1077    1.0000 0.53093  0.59187  0.36707  Biso   1.000  C
  C1078    1.0000 0.59023  0.56017  0.42187  Biso   1.000  C
  C1079    1.0000 0.51343  0.66057  0.35097  Biso   1.000  C
  H836     1.0000 0.55113  0.68887  0.34967  Biso   1.000  H
  H837     1.0000 0.49223  0.66387  0.33987  Biso   1.000  H
  H838     1.0000 0.49933  0.66417  0.36417  Biso   1.000  H
  C1080    1.0000 0.62163  0.63677  0.34857  Biso   1.000  C
  H839     1.0000 0.65633  0.63827  0.35107  Biso   1.000  H
  H840     1.0000 0.62893  0.67437  0.34827  Biso   1.000  H
  Rb91     1.0000 0.78724  0.88614  0.64256  Biso   1.000  Rb
  O556     1.0000 0.72650  0.54000  0.60710  Biso   1.000  O
  C1081    1.0000 0.57870  0.55280  0.56864  Biso   1.000  C
  Rb92     1.0000 0.58794  0.79922  0.70662  Biso   1.000  Rb
  O557     1.0000 0.68310  0.46510  0.59320  Biso   1.000  O
  C1082    1.0000 0.61340  0.58410  0.58470  Biso   1.000  C
  Rb93     1.0000 0.54490  0.45933  0.61973  Biso   1.000  Rb
  O558     1.0000 0.54610  0.57000  0.55788  Biso   1.000  O
  C1083    1.0000 0.64560  0.56910  0.59300  Biso   1.000  C
  H841     1.0000 0.66900  0.59120  0.60360  Biso   1.000  H
  Rb94     1.0000 0.43666  0.56143  0.56157  Biso   1.000  Rb
  O559     1.0000 0.38550  0.46460  0.50050  Biso   1.000  O
  C1084    1.0000 0.64810  0.52010  0.58720  Biso   1.000  C
  Rb95     1.0000 0.77240  0.62750  0.63378  Biso   1.000  Rb
  O560     1.0000 0.31050  0.42760  0.52060  Biso   1.000  O
  C1085    1.0000 0.61140  0.48880  0.57131  Biso   1.000  C
  H842     1.0000 0.60970  0.45630  0.56700  Biso   1.000  H
  O561     1.0000 0.47820  0.41430  0.58209  Biso   1.000  O
  C1086    1.0000 0.57670  0.50570  0.56142  Biso   1.000  C
  O562     1.0000 0.42650  0.32350  0.65760  Biso   1.000  O
  C1087    1.0000 0.68620  0.50610  0.59650  Biso   1.000  C
  O563     1.0000 0.45850  0.40470  0.67710  Biso   1.000  O
  C1088    1.0000 0.57450  0.60690  0.54070  Biso   1.000  C
  H843     1.0000 0.59550  0.64380  0.54590  Biso   1.000  H
  H844     1.0000 0.54820  0.60490  0.53070  Biso   1.000  H
  H845     1.0000 0.59870  0.59660  0.53420  Biso   1.000  H
  O564     1.0000 0.39470  0.49160  0.59930  Biso   1.000  O
  C1089    1.0000 0.53670  0.46710  0.54500  Biso   1.000  C
  H846     1.0000 0.54810  0.48480  0.53150  Biso   1.000  H
  H847     1.0000 0.53960  0.43420  0.54450  Biso   1.000  H
  O565     1.0000 0.44350  0.70640  0.59710  Biso   1.000  O
  C1090    1.0000 0.47750  0.45030  0.54820  Biso   1.000  C
  O566     1.0000 0.51150  0.74410  0.57580  Biso   1.000  O
  C1091    1.0000 0.44900  0.45580  0.53310  Biso   1.000  C
  H848     1.0000 0.46660  0.47190  0.52070  Biso   1.000  H
  O567     1.0000 0.55060  0.56380  0.62384  Biso   1.000  O
  C1092    1.0000 0.39180  0.43800  0.53520  Biso   1.000  C
  C1093    1.0000 0.36650  0.41430  0.55430  Biso   1.000  C
  H849     1.0000 0.32940  0.40230  0.55630  Biso   1.000  H
  C1094    1.0000 0.39690  0.40900  0.57010  Biso   1.000  C
  C1095    1.0000 0.45110  0.42380  0.56750  Biso   1.000  C
  C1096    1.0000 0.36030  0.44490  0.51570  Biso   1.000  C
  C1097    1.0000 0.47170  0.36090  0.57800  Biso   1.000  C
  H850     1.0000 0.43900  0.33320  0.58470  Biso   1.000  H
  H851     1.0000 0.50300  0.35960  0.58320  Biso   1.000  H
  H852     1.0000 0.46860  0.35430  0.56320  Biso   1.000  H
  O568     1.0000 0.57000  0.37800  0.61320  Biso   1.000  O
  C1098    1.0000 0.36790  0.38020  0.59120  Biso   1.000  C
  H853     1.0000 0.33060  0.37360  0.59060  Biso   1.000  H
  H854     1.0000 0.36530  0.34440  0.59140  Biso   1.000  H
  O569     1.0000 0.86300  0.84100  0.79730  Biso   1.000  O
  C1099    1.0000 0.39190  0.40750  0.61140  Biso   1.000  C
  C1100    1.0000 0.40310  0.38090  0.62560  Biso   1.000  C
  H855     1.0000 0.39710  0.34590  0.62270  Biso   1.000  H
  C1101    1.0000 0.42330  0.40390  0.64440  Biso   1.000  C
  C1102    1.0000 0.43710  0.46280  0.64470  Biso   1.000  C
  H856     1.0000 0.45380  0.48050  0.65710  Biso   1.000  H
  O570     1.0000 0.83370  0.60110  0.62740  Biso   1.000  O
  C1103    1.0000 0.43120  0.49380  0.63200  Biso   1.000  C
  O571     1.0000 0.84340  0.73340  0.65550  Biso   1.000  O
  C1104    1.0000 0.40350  0.46420  0.61390  Biso   1.000  C
  O572     1.0000 0.85500  0.72390  0.65720  Biso   1.000  O
  C1105    1.0000 0.43350  0.36990  0.66030  Biso   1.000  C
  O573     1.0000 0.76920  0.72310  0.61022  Biso   1.000  O
  C1106    1.0000 0.34170  0.48560  0.60410  Biso   1.000  C
  H857     1.0000 0.31510  0.46170  0.59410  Biso   1.000  H
  H858     1.0000 0.34420  0.52100  0.60370  Biso   1.000  H
  H859     1.0000 0.33050  0.47020  0.61780  Biso   1.000  H
  O574     1.0000 0.74200  0.77030  0.59020  Biso   1.000  O
  C1107    1.0000 0.44850  0.54880  0.63790  Biso   1.000  C
  H860     1.0000 0.47020  0.55730  0.65050  Biso   1.000  H
  H861     1.0000 0.41640  0.55180  0.64100  Biso   1.000  H
  O575     1.0000 0.77000  0.80500  0.58970  Biso   1.000  O
  C1108    1.0000 0.48340  0.59240  0.62080  Biso   1.000  C
  O576     1.0000 0.59900  0.73970  0.67148  Biso   1.000  O
  C1109    1.0000 0.47150  0.63290  0.61130  Biso   1.000  C
  H862     1.0000 0.43940  0.63250  0.61520  Biso   1.000  H
  O577     1.0000 0.43930  0.79160  0.66910  Biso   1.000  O
  C1110    1.0000 0.50240  0.66820  0.59810  Biso   1.000  C
  O578     1.0000 0.46380  0.85480  0.69110  Biso   1.000  O
  C1111    1.0000 0.54280  0.66890  0.59240  Biso   1.000  C
  H863     1.0000 0.56400  0.69490  0.58230  Biso   1.000  H
  O579     1.0000 0.48280  0.87280  0.68890  Biso   1.000  O
  C1112    1.0000 0.56280  0.63110  0.60000  Biso   1.000  C
  O580     1.0000 0.68390  0.88910  0.64028  Biso   1.000  O
  C1113    1.0000 0.53290  0.59600  0.61490  Biso   1.000  C
  O581     1.0000 0.88910  0.07410  0.64800  Biso   1.000  O
  C1114    1.0000 0.48640  0.71260  0.58960  Biso   1.000  C
  O582     1.0000 0.93240  0.04350  0.67120  Biso   1.000  O
  C1115    1.0000 0.58490  0.59230  0.64060  Biso   1.000  C
  H864     1.0000 0.61010  0.62940  0.63650  Biso   1.000  H
  H865     1.0000 0.60510  0.57460  0.64470  Biso   1.000  H
  H866     1.0000 0.56310  0.59240  0.65210  Biso   1.000  H
  O583     1.0000 0.68670  0.90450  0.70338  Biso   1.000  O
  C1116    1.0000 0.61550  0.63730  0.59180  Biso   1.000  C
  H867     1.0000 0.64330  0.65410  0.60260  Biso   1.000  H
  H868     1.0000 0.62730  0.66240  0.58000  Biso   1.000  H
  O584     1.0000 0.65170  0.77060  0.77170  Biso   1.000  O
  C1117    1.0000 0.67730  0.73080  0.66100  Biso   1.000  C
  O585     1.0000 0.59320  0.69280  0.75520  Biso   1.000  O
  C1118    1.0000 0.71080  0.73170  0.64500  Biso   1.000  C
  H869     1.0000 0.73600  0.72020  0.64760  Biso   1.000  H
  O586     1.0000 0.76340  0.82390  0.68313  Biso   1.000  O
  C1119    1.0000 0.70780  0.74950  0.62490  Biso   1.000  C
  C1120    1.0000 0.66850  0.76690  0.62080  Biso   1.000  C
  H870     1.0000 0.66660  0.77930  0.60760  Biso   1.000  H
  C1121    1.0000 0.63360  0.76550  0.63619  Biso   1.000  C
  O587     1.0000 0.52780  0.85220  0.72480  Biso   1.000  O
  C1122    1.0000 0.63720  0.74480  0.65620  Biso   1.000  C
  O588     1.0000 0.55150  0.87760  0.72170  Biso   1.000  O
  C1123    1.0000 0.74270  0.74690  0.60710  Biso   1.000  C
  C1124    1.0000 0.54980  0.68850  0.67080  Biso   1.000  C
  H871     1.0000 0.55750  0.65970  0.67400  Biso   1.000  H
  H872     1.0000 0.52440  0.68830  0.68090  Biso   1.000  H
  H873     1.0000 0.53400  0.68290  0.65710  Biso   1.000  H
  O589     1.0000 0.90550  0.93400  0.65620  Biso   1.000  O
  C1125    1.0000 0.59010  0.78130  0.63180  Biso   1.000  C
  H874     1.0000 0.55430  0.74830  0.63240  Biso   1.000  H
  H875     1.0000 0.59520  0.79530  0.61760  Biso   1.000  H
  O590     1.0000 0.90420  0.94700  0.65000  Biso   1.000  O
  C1126    1.0000 0.59000  0.82350  0.64626  Biso   1.000  C
  O591     1.0000 0.85130  0.83670  0.62680  Biso   1.000  O
  C1127    1.0000 0.54020  0.81100  0.65510  Biso   1.000  C
  H876     1.0000 0.50910  0.77740  0.65210  Biso   1.000  H
  O592     1.0000 0.84630  0.82060  0.63330  Biso   1.000  O
  C1128    1.0000 0.53560  0.84860  0.66886  Biso   1.000  C
  C1129    1.0000 0.58320  0.89810  0.67320  Biso   1.000  C
  H877     1.0000 0.58110  0.92300  0.68210  Biso   1.000  H
  C1130    1.0000 0.63230  0.91090  0.66470  Biso   1.000  C
  C1131    1.0000 0.63680  0.87570  0.65045  Biso   1.000  C
  C1132    1.0000 0.47650  0.82940  0.67680  Biso   1.000  C
  C1133    1.0000 0.68740  0.91650  0.62060  Biso   1.000  C
  H878     1.0000 0.67980  0.94580  0.62300  Biso   1.000  H
  H879     1.0000 0.72360  0.93110  0.61490  Biso   1.000  H
  H880     1.0000 0.66090  0.89050  0.61100  Biso   1.000  H
  C1134    1.0000 0.68240  0.96620  0.66960  Biso   1.000  C
  H881     1.0000 0.69110  0.98910  0.65720  Biso   1.000  H
  H882     1.0000 0.67240  0.98360  0.68050  Biso   1.000  H
  C1135    1.0000 0.73520  0.96670  0.67650  Biso   1.000  C
  C1136    1.0000 0.78640  0.00010  0.66760  Biso   1.000  C
  H883     1.0000 0.78800  0.02150  0.65630  Biso   1.000  H
  C1137    1.0000 0.83420  0.00420  0.67390  Biso   1.000  C
  C1138    1.0000 0.83240  0.97100  0.68870  Biso   1.000  C
  H884     1.0000 0.86450  0.97120  0.69250  Biso   1.000  H
  C1139    1.0000 0.78020  0.93300  0.69950  Biso   1.000  C
  C1140    1.0000 0.73470  0.93440  0.69290  Biso   1.000  C
  C1141    1.0000 0.89110  0.04650  0.66140  Biso   1.000  C
  C1142    1.0000 0.68010  0.93250  0.72140  Biso   1.000  C
  H885     1.0000 0.69960  0.97140  0.71900  Biso   1.000  H
  H886     1.0000 0.64180  0.92010  0.72340  Biso   1.000  H
  H887     1.0000 0.69440  0.92420  0.73360  Biso   1.000  H
  C1143    1.0000 0.78030  0.89970  0.71740  Biso   1.000  C
  H888     1.0000 0.81630  0.90300  0.71820  Biso   1.000  H
  H889     1.0000 0.77520  0.91550  0.73010  Biso   1.000  H
  C1144    1.0000 0.73770  0.83940  0.71696  Biso   1.000  C
  C1145    1.0000 0.70540  0.81620  0.73437  Biso   1.000  C
  H890     1.0000 0.71090  0.83880  0.74580  Biso   1.000  H
  C1146    1.0000 0.66500  0.76080  0.73600  Biso   1.000  C
  Rb96     1.0000 0.78358  0.64236  0.62838  Biso   1.000  Rb
  C1147    1.0000 0.65830  0.72850  0.71859  Biso   1.000  C
  H891     1.0000 0.63120  0.69160  0.71880  Biso   1.000  H
  C1148    1.0000 0.69070  0.74930  0.70075  Biso   1.000  C
  C1149    1.0000 0.72760  0.80240  0.70040  Biso   1.000  C
  C1150    1.0000 0.63660  0.74310  0.75520  Biso   1.000  C
  C1151    1.0000 0.81380  0.81990  0.68430  Biso   1.000  C
  H892     1.0000 0.80440  0.78220  0.68300  Biso   1.000  H
  H893     1.0000 0.83830  0.84110  0.67320  Biso   1.000  H
  H894     1.0000 0.83150  0.83400  0.69750  Biso   1.000  H
  C1152    1.0000 0.68180  0.71170  0.68190  Biso   1.000  C
  H895     1.0000 0.64860  0.67700  0.68440  Biso   1.000  H
  H896     1.0000 0.71210  0.70440  0.68160  Biso   1.000  H
  Rb97     1.0000 0.45391  0.21947  0.97589  Biso   1.000  Rb
  O593     1.0000 0.39317  0.87333  0.94043  Biso   1.000  O
  C1153    1.0000 0.24537  0.88613  0.90197  Biso   1.000  C
  Rb98     1.0000 0.25461  0.13255  0.03995  Biso   1.000  Rb
  O594     1.0000 0.34977  0.79843  0.92653  Biso   1.000  O
  C1154    1.0000 0.28007  0.91743  0.91803  Biso   1.000  C
  Rb99     1.0000 0.21157  0.79266  0.95306  Biso   1.000  Rb
  O595     1.0000 0.21277  0.90333  0.89121  Biso   1.000  O
  C1155    1.0000 0.31227  0.90243  0.92633  Biso   1.000  C
  H897     1.0000 0.33567  0.92453  0.93693  Biso   1.000  H
  Rb100    1.0000 0.10333  0.89476  0.89490  Biso   1.000  Rb
  O596     1.0000 0.05217  0.79793  0.83383  Biso   1.000  O
  C1156    1.0000 0.31477  0.85343  0.92053  Biso   1.000  C
  Rb101    1.0000 0.43907  0.96083  0.96711  Biso   1.000  Rb
  O597     1.0000 0.97717  0.76093  0.85393  Biso   1.000  O
  C1157    1.0000 0.27807  0.82213  0.90464  Biso   1.000  C
  H898     1.0000 0.27637  0.78963  0.90033  Biso   1.000  H
  O598     1.0000 0.14487  0.74763  0.91542  Biso   1.000  O
  C1158    1.0000 0.24337  0.83903  0.89475  Biso   1.000  C
  O599     1.0000 0.09317  0.65683  0.99093  Biso   1.000  O
  C1159    1.0000 0.35287  0.83943  0.92983  Biso   1.000  C
  O600     1.0000 0.12517  0.73803  0.01043  Biso   1.000  O
  C1160    1.0000 0.24117  0.94023  0.87403  Biso   1.000  C
  H899     1.0000 0.26217  0.97713  0.87923  Biso   1.000  H
  H900     1.0000 0.21487  0.93823  0.86403  Biso   1.000  H
  H901     1.0000 0.26537  0.92993  0.86753  Biso   1.000  H
  O601     1.0000 0.06137  0.82493  0.93263  Biso   1.000  O
  C1161    1.0000 0.20337  0.80043  0.87833  Biso   1.000  C
  H902     1.0000 0.21477  0.81813  0.86483  Biso   1.000  H
  H903     1.0000 0.20627  0.76753  0.87783  Biso   1.000  H
  O602     1.0000 0.11017  0.03973  0.93043  Biso   1.000  O
  C1162    1.0000 0.14417  0.78363  0.88153  Biso   1.000  C
  O603     1.0000 0.17817  0.07743  0.90913  Biso   1.000  O
  C1163    1.0000 0.11567  0.78913  0.86643  Biso   1.000  C
  H904     1.0000 0.13327  0.80523  0.85403  Biso   1.000  H
  O604     1.0000 0.21727  0.89713  0.95717  Biso   1.000  O
  C1164    1.0000 0.05847  0.77133  0.86853  Biso   1.000  C
  C1165    1.0000 0.03317  0.74763  0.88763  Biso   1.000  C
  H905     1.0000 0.99607  0.73563  0.88963  Biso   1.000  H
  C1166    1.0000 0.06357  0.74233  0.90343  Biso   1.000  C
  C1167    1.0000 0.11777  0.75713  0.90083  Biso   1.000  C
  C1168    1.0000 0.02697  0.77823  0.84903  Biso   1.000  C
  C1169    1.0000 0.13837  0.69423  0.91133  Biso   1.000  C
  H906     1.0000 0.10567  0.66653  0.91803  Biso   1.000  H
  H907     1.0000 0.16967  0.69293  0.91653  Biso   1.000  H
  H908     1.0000 0.13527  0.68763  0.89653  Biso   1.000  H
  O605     1.0000 0.23667  0.71133  0.94653  Biso   1.000  O
  C1170    1.0000 0.03457  0.71353  0.92453  Biso   1.000  C
  H909     1.0000 0.99727  0.70693  0.92393  Biso   1.000  H
  H910     1.0000 0.03197  0.67773  0.92473  Biso   1.000  H
  O606     1.0000 0.52967  0.17433  0.13063  Biso   1.000  O
  C1171    1.0000 0.05857  0.74083  0.94473  Biso   1.000  C
  C1172    1.0000 0.06977  0.71423  0.95893  Biso   1.000  C
  H911     1.0000 0.06377  0.67923  0.95603  Biso   1.000  H
  C1173    1.0000 0.08997  0.73723  0.97773  Biso   1.000  C
  C1174    1.0000 0.10377  0.79613  0.97803  Biso   1.000  C
  H912     1.0000 0.12047  0.81383  0.99043  Biso   1.000  H
  O607     1.0000 0.50037  0.93443  0.96073  Biso   1.000  O
  C1175    1.0000 0.09787  0.82713  0.96533  Biso   1.000  C
  O608     1.0000 0.51007  0.06673  0.98883  Biso   1.000  O
  C1176    1.0000 0.07017  0.79753  0.94723  Biso   1.000  C
  O609     1.0000 0.52167  0.05723  0.99053  Biso   1.000  O
  C1177    1.0000 0.10017  0.70323  0.99363  Biso   1.000  C
  O610     1.0000 0.43587  0.05643  0.94355  Biso   1.000  O
  C1178    1.0000 0.00837  0.81893  0.93743  Biso   1.000  C
  H913     1.0000 0.98177  0.79503  0.92743  Biso   1.000  H
  H914     1.0000 0.01087  0.85433  0.93703  Biso   1.000  H
  H915     1.0000 0.99717  0.80353  0.95113  Biso   1.000  H
  O611     1.0000 0.40867  0.10363  0.92353  Biso   1.000  O
  C1179    1.0000 0.11517  0.88213  0.97123  Biso   1.000  C
  H916     1.0000 0.13687  0.89063  0.98383  Biso   1.000  H
  H917     1.0000 0.08307  0.88513  0.97433  Biso   1.000  H
  O612     1.0000 0.43667  0.13833  0.92303  Biso   1.000  O
  C1180    1.0000 0.15007  0.92573  0.95413  Biso   1.000  C
  O613     1.0000 0.26567  0.07303  0.00481  Biso   1.000  O
  C1181    1.0000 0.13817  0.96623  0.94463  Biso   1.000  C
  H918     1.0000 0.10607  0.96583  0.94853  Biso   1.000  H
  O614     1.0000 0.10597  0.12493  0.00243  Biso   1.000  O
  C1182    1.0000 0.16907  0.00153  0.93143  Biso   1.000  C
  O615     1.0000 0.13047  0.18813  0.02443  Biso   1.000  O
  C1183    1.0000 0.20947  0.00223  0.92573  Biso   1.000  C
  H919     1.0000 0.23067  0.02823  0.91563  Biso   1.000  H
  O616     1.0000 0.14947  0.20613  0.02223  Biso   1.000  O
  C1184    1.0000 0.22947  0.96443  0.93333  Biso   1.000  C
  O617     1.0000 0.35057  0.22243  0.97361  Biso   1.000  O
  C1185    1.0000 0.19957  0.92933  0.94823  Biso   1.000  C
  O618     1.0000 0.55577  0.40743  0.98133  Biso   1.000  O
  C1186    1.0000 0.15307  0.04593  0.92293  Biso   1.000  C
  O619     1.0000 0.59907  0.37683  0.00453  Biso   1.000  O
  C1187    1.0000 0.25157  0.92563  0.97393  Biso   1.000  C
  H920     1.0000 0.27677  0.96273  0.96983  Biso   1.000  H
  H921     1.0000 0.27177  0.90793  0.97803  Biso   1.000  H
  H922     1.0000 0.22977  0.92573  0.98543  Biso   1.000  H
  O620     1.0000 0.35337  0.23783  0.03671  Biso   1.000  O
  C1188    1.0000 0.28217  0.97063  0.92513  Biso   1.000  C
  H923     1.0000 0.30997  0.98743  0.93593  Biso   1.000  H
  H924     1.0000 0.29397  0.99573  0.91333  Biso   1.000  H
  O621     1.0000 0.31837  0.10393  0.10503  Biso   1.000  O
  C1189    1.0000 0.34397  0.06413  0.99433  Biso   1.000  C
  O622     1.0000 0.25987  0.02613  0.08853  Biso   1.000  O
  C1190    1.0000 0.37747  0.06503  0.97833  Biso   1.000  C
  H925     1.0000 0.40267  0.05353  0.98093  Biso   1.000  H
  O623     1.0000 0.43007  0.15723  0.01646  Biso   1.000  O
  C1191    1.0000 0.37447  0.08283  0.95823  Biso   1.000  C
  C1192    1.0000 0.33517  0.10023  0.95413  Biso   1.000  C
  H926     1.0000 0.33327  0.11263  0.94093  Biso   1.000  H
  C1193    1.0000 0.30027  0.09883  0.96952  Biso   1.000  C
  O624     1.0000 0.19447  0.18553  0.05813  Biso   1.000  O
  C1194    1.0000 0.30387  0.07813  0.98953  Biso   1.000  C
  O625     1.0000 0.21817  0.21093  0.05503  Biso   1.000  O
  C1195    1.0000 0.40937  0.08023  0.94043  Biso   1.000  C
  C1196    1.0000 0.21647  0.02183  0.00413  Biso   1.000  C
  H927     1.0000 0.22417  0.99303  0.00733  Biso   1.000  H
  H928     1.0000 0.19107  0.02163  0.01423  Biso   1.000  H
  H929     1.0000 0.20067  0.01623  0.99043  Biso   1.000  H
  O626     1.0000 0.57217  0.26733  0.98953  Biso   1.000  O
  C1197    1.0000 0.25677  0.11463  0.96513  Biso   1.000  C
  H930     1.0000 0.22097  0.08163  0.96573  Biso   1.000  H
  H931     1.0000 0.26187  0.12863  0.95093  Biso   1.000  H
  O627     1.0000 0.57087  0.28033  0.98333  Biso   1.000  O
  C1198    1.0000 0.25667  0.15683  0.97959  Biso   1.000  C
  O628     1.0000 0.51797  0.17003  0.96013  Biso   1.000  O
  C1199    1.0000 0.20687  0.14433  0.98843  Biso   1.000  C
  H932     1.0000 0.17577  0.11073  0.98543  Biso   1.000  H
  O629     1.0000 0.51297  0.15393  0.96663  Biso   1.000  O
  C1200    1.0000 0.20227  0.18193  0.00219  Biso   1.000  C
  C1201    1.0000 0.24987  0.23143  0.00653  Biso   1.000  C
  H933     1.0000 0.24777  0.25633  0.01543  Biso   1.000  H
  C1202    1.0000 0.29897  0.24423  0.99803  Biso   1.000  C
  C1203    1.0000 0.30347  0.20903  0.98378  Biso   1.000  C
  C1204    1.0000 0.14317  0.16273  0.01013  Biso   1.000  C
  C1205    1.0000 0.35407  0.24983  0.95393  Biso   1.000  C
  H934     1.0000 0.34647  0.27913  0.95633  Biso   1.000  H
  H935     1.0000 0.39027  0.26443  0.94823  Biso   1.000  H
  H936     1.0000 0.32757  0.22383  0.94433  Biso   1.000  H
  C1206    1.0000 0.34907  0.29953  0.00293  Biso   1.000  C
  H937     1.0000 0.35777  0.32243  0.99053  Biso   1.000  H
  H938     1.0000 0.33907  0.31693  0.01383  Biso   1.000  H
  C1207    1.0000 0.40187  0.30003  0.00983  Biso   1.000  C
  C1208    1.0000 0.45307  0.33343  0.00093  Biso   1.000  C
  H939     1.0000 0.45467  0.35483  0.98963  Biso   1.000  H
  C1209    1.0000 0.50087  0.33753  0.00723  Biso   1.000  C
  C1210    1.0000 0.49907  0.30433  0.02203  Biso   1.000  C
  H940     1.0000 0.53117  0.30453  0.02583  Biso   1.000  H
  C1211    1.0000 0.44687  0.26633  0.03283  Biso   1.000  C
  C1212    1.0000 0.40137  0.26773  0.02623  Biso   1.000  C
  C1213    1.0000 0.55777  0.37983  0.99473  Biso   1.000  C
  C1214    1.0000 0.34677  0.26583  0.05473  Biso   1.000  C
  H941     1.0000 0.36627  0.30473  0.05233  Biso   1.000  H
  H942     1.0000 0.30847  0.25343  0.05673  Biso   1.000  H
  H943     1.0000 0.36107  0.25753  0.06693  Biso   1.000  H
  C1215    1.0000 0.44697  0.23303  0.05073  Biso   1.000  C
  H944     1.0000 0.48297  0.23633  0.05153  Biso   1.000  H
  H945     1.0000 0.44187  0.24883  0.06343  Biso   1.000  H
  C1216    1.0000 0.40437  0.17273  0.05029  Biso   1.000  C
  C1217    1.0000 0.37207  0.14953  0.06770  Biso   1.000  C
  H946     1.0000 0.37757  0.17213  0.07913  Biso   1.000  H
  C1218    1.0000 0.33167  0.09413  0.06933  Biso   1.000  C
  Rb102    1.0000 0.45025  0.97569  0.96171  Biso   1.000  Rb
  C1219    1.0000 0.32497  0.06183  0.05192  Biso   1.000  C
  H947     1.0000 0.29787  0.02493  0.05213  Biso   1.000  H
  C1220    1.0000 0.35737  0.08263  0.03408  Biso   1.000  C
  C1221    1.0000 0.39427  0.13573  0.03373  Biso   1.000  C
  C1222    1.0000 0.30327  0.07643  0.08853  Biso   1.000  C
  C1223    1.0000 0.48047  0.15323  0.01763  Biso   1.000  C
  H948     1.0000 0.47107  0.11553  0.01633  Biso   1.000  H
  H949     1.0000 0.50497  0.17443  0.00653  Biso   1.000  H
  H950     1.0000 0.49817  0.16733  0.03083  Biso   1.000  H
  C1224    1.0000 0.34847  0.04503  0.01523  Biso   1.000  C
  H951     1.0000 0.31527  0.01033  0.01773  Biso   1.000  H
  H952     1.0000 0.37877  0.03773  0.01493  Biso   1.000  H
  Rb103    1.0000 0.12057  0.55281  0.30923  Biso   1.000  Rb
  O630     1.0000 0.05983  0.20667  0.27377  Biso   1.000  O
  C1225    1.0000 0.91203  0.21947  0.23531  Biso   1.000  C
  Rb104    1.0000 0.92127  0.46589  0.37329  Biso   1.000  Rb
  O631     1.0000 0.01643  0.13177  0.25987  Biso   1.000  O
  C1226    1.0000 0.94673  0.25077  0.25137  Biso   1.000  C
  Rb105    1.0000 0.87823  0.12600  0.28640  Biso   1.000  Rb
  O632     1.0000 0.87943  0.23667  0.22455  Biso   1.000  O
  C1227    1.0000 0.97893  0.23577  0.25967  Biso   1.000  C
  H953     1.0000 0.00233  0.25787  0.27027  Biso   1.000  H
  Rb106    1.0000 0.76999  0.22810  0.22824  Biso   1.000  Rb
  O633     1.0000 0.71883  0.13127  0.16717  Biso   1.000  O
  C1228    1.0000 0.98143  0.18677  0.25387  Biso   1.000  C
  Rb107    1.0000 0.10573  0.29417  0.30045  Biso   1.000  Rb
  O634     1.0000 0.64383  0.09427  0.18727  Biso   1.000  O
  C1229    1.0000 0.94473  0.15547  0.23798  Biso   1.000  C
  H954     1.0000 0.94303  0.12297  0.23367  Biso   1.000  H
  O635     1.0000 0.81153  0.08097  0.24876  Biso   1.000  O
  C1230    1.0000 0.91003  0.17237  0.22809  Biso   1.000  C
  O636     1.0000 0.75983  0.99017  0.32427  Biso   1.000  O
  C1231    1.0000 0.01953  0.17277  0.26317  Biso   1.000  C
  O637     1.0000 0.79183  0.07137  0.34377  Biso   1.000  O
  C1232    1.0000 0.90783  0.27357  0.20737  Biso   1.000  C
  H955     1.0000 0.92883  0.31047  0.21257  Biso   1.000  H
  H956     1.0000 0.88153  0.27157  0.19737  Biso   1.000  H
  H957     1.0000 0.93203  0.26327  0.20087  Biso   1.000  H
  O638     1.0000 0.72803  0.15827  0.26597  Biso   1.000  O
  C1233    1.0000 0.87003  0.13377  0.21167  Biso   1.000  C
  H958     1.0000 0.88143  0.15147  0.19817  Biso   1.000  H
  H959     1.0000 0.87293  0.10087  0.21117  Biso   1.000  H
  O639     1.0000 0.77683  0.37307  0.26377  Biso   1.000  O
  C1234    1.0000 0.81083  0.11697  0.21487  Biso   1.000  C
  O640     1.0000 0.84483  0.41077  0.24247  Biso   1.000  O
  C1235    1.0000 0.78233  0.12247  0.19977  Biso   1.000  C
  H960     1.0000 0.79993  0.13857  0.18737  Biso   1.000  H
  O641     1.0000 0.88393  0.23047  0.29051  Biso   1.000  O
  C1236    1.0000 0.72513  0.10467  0.20187  Biso   1.000  C
  C1237    1.0000 0.69983  0.08097  0.22097  Biso   1.000  C
  H961     1.0000 0.66273  0.06897  0.22297  Biso   1.000  H
  C1238    1.0000 0.73023  0.07567  0.23677  Biso   1.000  C
  C1239    1.0000 0.78443  0.09047  0.23417  Biso   1.000  C
  C1240    1.0000 0.69363  0.11157  0.18237  Biso   1.000  C
  C1241    1.0000 0.80503  0.02757  0.24467  Biso   1.000  C
  H962     1.0000 0.77233  0.99987  0.25137  Biso   1.000  H
  H963     1.0000 0.83633  0.02627  0.24987  Biso   1.000  H
  H964     1.0000 0.80193  0.02097  0.22987  Biso   1.000  H
  O642     1.0000 0.90333  0.04467  0.27987  Biso   1.000  O
  C1242    1.0000 0.70123  0.04687  0.25787  Biso   1.000  C
  H965     1.0000 0.66393  0.04027  0.25727  Biso   1.000  H
  H966     1.0000 0.69863  0.01107  0.25807  Biso   1.000  H
  O643     1.0000 0.19633  0.50767  0.46397  Biso   1.000  O
  C1243    1.0000 0.72523  0.07417  0.27807  Biso   1.000  C
  C1244    1.0000 0.73643  0.04757  0.29227  Biso   1.000  C
  H967     1.0000 0.73043  0.01257  0.28937  Biso   1.000  H
  C1245    1.0000 0.75663  0.07057  0.31107  Biso   1.000  C
  C1246    1.0000 0.77043  0.12947  0.31137  Biso   1.000  C
  H968     1.0000 0.78713  0.14717  0.32377  Biso   1.000  H
  O644     1.0000 0.16703  0.26777  0.29407  Biso   1.000  O
  C1247    1.0000 0.76453  0.16047  0.29867  Biso   1.000  C
  O645     1.0000 0.17673  0.40007  0.32217  Biso   1.000  O
  C1248    1.0000 0.73683  0.13087  0.28057  Biso   1.000  C
  O646     1.0000 0.18833  0.39057  0.32387  Biso   1.000  O
  C1249    1.0000 0.76683  0.03657  0.32697  Biso   1.000  C
  O647     1.0000 0.10253  0.38977  0.27689  Biso   1.000  O
  C1250    1.0000 0.67503  0.15227  0.27077  Biso   1.000  C
  H969     1.0000 0.64843  0.12837  0.26077  Biso   1.000  H
  H970     1.0000 0.67753  0.18767  0.27037  Biso   1.000  H
  H971     1.0000 0.66383  0.13687  0.28447  Biso   1.000  H
  O648     1.0000 0.07533  0.43697  0.25687  Biso   1.000  O
  C1251    1.0000 0.78183  0.21547  0.30457  Biso   1.000  C
  H972     1.0000 0.80353  0.22397  0.31717  Biso   1.000  H
  H973     1.0000 0.74973  0.21847  0.30767  Biso   1.000  H
  O649     1.0000 0.10333  0.47167  0.25637  Biso   1.000  O
  C1252    1.0000 0.81673  0.25907  0.28747  Biso   1.000  C
  O650     1.0000 0.93233  0.40637  0.33815  Biso   1.000  O
  C1253    1.0000 0.80483  0.29957  0.27797  Biso   1.000  C
  H974     1.0000 0.77273  0.29917  0.28187  Biso   1.000  H
  O651     1.0000 0.77263  0.45827  0.33577  Biso   1.000  O
  C1254    1.0000 0.83573  0.33487  0.26477  Biso   1.000  C
  O652     1.0000 0.79713  0.52147  0.35777  Biso   1.000  O
  C1255    1.0000 0.87613  0.33557  0.25907  Biso   1.000  C
  H975     1.0000 0.89733  0.36157  0.24897  Biso   1.000  H
  O653     1.0000 0.81613  0.53947  0.35557  Biso   1.000  O
  C1256    1.0000 0.89613  0.29777  0.26667  Biso   1.000  C
  O654     1.0000 0.01723  0.55577  0.30695  Biso   1.000  O
  C1257    1.0000 0.86623  0.26267  0.28157  Biso   1.000  C
  O655     1.0000 0.22243  0.74077  0.31467  Biso   1.000  O
  C1258    1.0000 0.81973  0.37927  0.25627  Biso   1.000  C
  O656     1.0000 0.26573  0.71017  0.33787  Biso   1.000  O
  C1259    1.0000 0.91823  0.25897  0.30727  Biso   1.000  C
  H976     1.0000 0.94343  0.29607  0.30317  Biso   1.000  H
  H977     1.0000 0.93843  0.24127  0.31137  Biso   1.000  H
  H978     1.0000 0.89643  0.25907  0.31877  Biso   1.000  H
  O657     1.0000 0.02003  0.57117  0.37005  Biso   1.000  O
  C1260    1.0000 0.94883  0.30397  0.25847  Biso   1.000  C
  H979     1.0000 0.97663  0.32077  0.26927  Biso   1.000  H
  H980     1.0000 0.96063  0.32907  0.24667  Biso   1.000  H
  O658     1.0000 0.98503  0.43727  0.43837  Biso   1.000  O
  C1261    1.0000 0.01063  0.39747  0.32767  Biso   1.000  C
  O659     1.0000 0.92653  0.35947  0.42187  Biso   1.000  O
  C1262    1.0000 0.04413  0.39837  0.31167  Biso   1.000  C
  H981     1.0000 0.06933  0.38687  0.31427  Biso   1.000  H
  O660     1.0000 0.09673  0.49057  0.34980  Biso   1.000  O
  C1263    1.0000 0.04113  0.41617  0.29157  Biso   1.000  C
  C1264    1.0000 0.00183  0.43357  0.28747  Biso   1.000  C
  H982     1.0000 0.99993  0.44597  0.27427  Biso   1.000  H
  C1265    1.0000 0.96693  0.43217  0.30286  Biso   1.000  C
  O661     1.0000 0.86113  0.51887  0.39147  Biso   1.000  O
  C1266    1.0000 0.97053  0.41147  0.32287  Biso   1.000  C
  O662     1.0000 0.88483  0.54427  0.38837  Biso   1.000  O
  C1267    1.0000 0.07603  0.41357  0.27377  Biso   1.000  C
  C1268    1.0000 0.88313  0.35517  0.33747  Biso   1.000  C
  H983     1.0000 0.89083  0.32637  0.34067  Biso   1.000  H
  H984     1.0000 0.85773  0.35497  0.34757  Biso   1.000  H
  H985     1.0000 0.86733  0.34957  0.32377  Biso   1.000  H
  O663     1.0000 0.23883  0.60067  0.32287  Biso   1.000  O
  C1269    1.0000 0.92343  0.44797  0.29847  Biso   1.000  C
  H986     1.0000 0.88763  0.41497  0.29907  Biso   1.000  H
  H987     1.0000 0.92853  0.46197  0.28427  Biso   1.000  H
  O664     1.0000 0.23753  0.61367  0.31667  Biso   1.000  O
  C1270    1.0000 0.92333  0.49017  0.31293  Biso   1.000  C
  O665     1.0000 0.18463  0.50337  0.29347  Biso   1.000  O
  C1271    1.0000 0.87353  0.47767  0.32177  Biso   1.000  C
  H988     1.0000 0.84243  0.44407  0.31877  Biso   1.000  H
  O666     1.0000 0.17963  0.48727  0.29997  Biso   1.000  O
  C1272    1.0000 0.86893  0.51527  0.33553  Biso   1.000  C
  C1273    1.0000 0.91653  0.56477  0.33987  Biso   1.000  C
  H989     1.0000 0.91443  0.58967  0.34877  Biso   1.000  H
  C1274    1.0000 0.96563  0.57757  0.33137  Biso   1.000  C
  C1275    1.0000 0.97013  0.54237  0.31712  Biso   1.000  C
  C1276    1.0000 0.80983  0.49607  0.34347  Biso   1.000  C
  C1277    1.0000 0.02073  0.58317  0.28727  Biso   1.000  C
  H990     1.0000 0.01313  0.61247  0.28967  Biso   1.000  H
  H991     1.0000 0.05693  0.59777  0.28157  Biso   1.000  H
  H992     1.0000 0.99423  0.55717  0.27767  Biso   1.000  H
  C1278    1.0000 0.01573  0.63287  0.33627  Biso   1.000  C
  H993     1.0000 0.02443  0.65577  0.32387  Biso   1.000  H
  H994     1.0000 0.00573  0.65027  0.34717  Biso   1.000  H
  C1279    1.0000 0.06853  0.63337  0.34317  Biso   1.000  C
  C1280    1.0000 0.11973  0.66677  0.33427  Biso   1.000  C
  H995     1.0000 0.12133  0.68817  0.32297  Biso   1.000  H
  C1281    1.0000 0.16753  0.67087  0.34057  Biso   1.000  C
  C1282    1.0000 0.16573  0.63767  0.35537  Biso   1.000  C
  H996     1.0000 0.19783  0.63787  0.35917  Biso   1.000  H
  C1283    1.0000 0.11353  0.59967  0.36617  Biso   1.000  C
  C1284    1.0000 0.06803  0.60107  0.35957  Biso   1.000  C
  C1285    1.0000 0.22443  0.71317  0.32807  Biso   1.000  C
  C1286    1.0000 0.01343  0.59917  0.38807  Biso   1.000  C
  H997     1.0000 0.03293  0.63807  0.38567  Biso   1.000  H
  H998     1.0000 0.97513  0.58677  0.39007  Biso   1.000  H
  H999     1.0000 0.02773  0.59087  0.40027  Biso   1.000  H
  C1287    1.0000 0.11363  0.56637  0.38407  Biso   1.000  C
  H1000    1.0000 0.14963  0.56967  0.38487  Biso   1.000  H
  H1001    1.0000 0.10853  0.58217  0.39677  Biso   1.000  H
  C1288    1.0000 0.07103  0.50607  0.38363  Biso   1.000  C
  C1289    1.0000 0.03873  0.48287  0.40104  Biso   1.000  C
  H1002    1.0000 0.04423  0.50547  0.41247  Biso   1.000  H
  C1290    1.0000 0.99833  0.42747  0.40267  Biso   1.000  C
  Rb108    1.0000 0.11691  0.30903  0.29505  Biso   1.000  Rb
  C1291    1.0000 0.99163  0.39517  0.38526  Biso   1.000  C
  H1003    1.0000 0.96453  0.35827  0.38547  Biso   1.000  H
  C1292    1.0000 0.02403  0.41597  0.36742  Biso   1.000  C
  C1293    1.0000 0.06093  0.46907  0.36707  Biso   1.000  C
  C1294    1.0000 0.96993  0.40977  0.42187  Biso   1.000  C
  C1295    1.0000 0.14713  0.48657  0.35097  Biso   1.000  C
  H1004    1.0000 0.13773  0.44887  0.34967  Biso   1.000  H
  H1005    1.0000 0.17163  0.50777  0.33987  Biso   1.000  H
  H1006    1.0000 0.16483  0.50067  0.36417  Biso   1.000  H
  C1296    1.0000 0.01513  0.37837  0.34857  Biso   1.000  C
  H1007    1.0000 0.98193  0.34367  0.35107  Biso   1.000  H
  H1008    1.0000 0.04543  0.37107  0.34827  Biso   1.000  H
