data_image0
_cell_length_a       23.1895
_cell_length_b       29.6451
_cell_length_c       29.5164
_cell_angle_alpha    90
_cell_angle_beta     90
_cell_angle_gamma    90

_symmetry_space_group_name_H-M    "P 1"
_symmetry_int_tables_number       1

loop_
  _symmetry_equiv_pos_as_xyz
  'x, y, z'

loop_
  _atom_site_label
  _atom_site_occupancy
  _atom_site_fract_x
  _atom_site_fract_y
  _atom_site_fract_z
  _atom_site_thermal_displace_type
  _atom_site_B_iso_or_equiv
  _atom_site_type_symbol
  C1       1.0000 0.72370  0.36750  0.37980  Biso   1.000  C
  C2       1.0000 0.71910  0.33200  0.34590  Biso   1.000  C
  C3       1.0000 0.76840  0.31830  0.32240  Biso   1.000  C
  H1       1.0000 0.80480  0.33170  0.32850  Biso   1.000  H
  C4       1.0000 0.76350  0.28520  0.29020  Biso   1.000  C
  C5       1.0000 0.71290  0.26560  0.27880  Biso   1.000  C
  H2       1.0000 0.71140  0.24360  0.25550  Biso   1.000  H
  C6       1.0000 0.66330  0.27830  0.30190  Biso   1.000  C
  C7       1.0000 0.66640  0.31080  0.33570  Biso   1.000  C
  H3       1.0000 0.63270  0.31870  0.35210  Biso   1.000  H
  C8       1.0000 0.79700  0.15760  0.28470  Biso   1.000  C
  H4       1.0000 0.78550  0.13440  0.30660  Biso   1.000  H
  H5       1.0000 0.82280  0.14440  0.26200  Biso   1.000  H
  H6       1.0000 0.76260  0.16970  0.26970  Biso   1.000  H
  C9       1.0000 0.82870  0.19630  0.30980  Biso   1.000  C
  H7       1.0000 0.80320  0.20960  0.33310  Biso   1.000  H
  H8       1.0000 0.86370  0.18450  0.32500  Biso   1.000  H
  C10      1.0000 0.84510  0.23150  0.27520  Biso   1.000  C
  C11      1.0000 0.84360  0.29310  0.23390  Biso   1.000  C
  C12      1.0000 0.82900  0.33680  0.21650  Biso   1.000  C
  H9       1.0000 0.84360  0.36010  0.23700  Biso   1.000  H
  H10      1.0000 0.78700  0.33950  0.21400  Biso   1.000  H
  H11      1.0000 0.84640  0.34080  0.18650  Biso   1.000  H
  C13      1.0000 0.59300  0.22320  0.27090  Biso   1.000  C
  C14      1.0000 0.53700  0.20050  0.27940  Biso   1.000  C
  C15      1.0000 0.52360  0.16300  0.25450  Biso   1.000  C
  H12      1.0000 0.54720  0.15490  0.22940  Biso   1.000  H
  C16      1.0000 0.47410  0.13570  0.26590  Biso   1.000  C
  C17      1.0000 0.43950  0.15200  0.29800  Biso   1.000  C
  H13      1.0000 0.40490  0.13580  0.30390  Biso   1.000  H
  C18      1.0000 0.44970  0.19130  0.32390  Biso   1.000  C
  H14      1.0000 0.42460  0.20070  0.34750  Biso   1.000  H
  C19      1.0000 0.49910  0.21490  0.31220  Biso   1.000  C
  H15      1.0000 0.50710  0.24240  0.32750  Biso   1.000  H
  C20      1.0000 0.46200  0.09520  0.23540  Biso   1.000  C
  H16      1.0000 0.45930  0.06790  0.25390  Biso   1.000  H
  H17      1.0000 0.49340  0.09190  0.21340  Biso   1.000  H
  H18      1.0000 0.42550  0.10000  0.21930  Biso   1.000  H
  C21      1.0000 0.75400  0.60130  0.57380  Biso   1.000  C
  C22      1.0000 0.74380  0.64620  0.60000  Biso   1.000  C
  C23      1.0000 0.68780  0.65200  0.62170  Biso   1.000  C
  H19      1.0000 0.65920  0.62910  0.62110  Biso   1.000  H
  C24      1.0000 0.67870  0.69380  0.64380  Biso   1.000  C
  C25      1.0000 0.71870  0.72640  0.64590  Biso   1.000  C
  H20      1.0000 0.71070  0.75330  0.66210  Biso   1.000  H
  C26      1.0000 0.77380  0.72100  0.62360  Biso   1.000  C
  C27      1.0000 0.78160  0.67990  0.60140  Biso   1.000  C
  H21      1.0000 0.81710  0.67560  0.58590  Biso   1.000  H
  C28      1.0000 0.59910  0.76770  0.61450  Biso   1.000  C
  C29      1.0000 0.58660  0.61680  0.75870  Biso   1.000  C
  H22      1.0000 0.55410  0.63620  0.76720  Biso   1.000  H
  H23      1.0000 0.61250  0.61310  0.78470  Biso   1.000  H
  H24      1.0000 0.57210  0.58720  0.74930  Biso   1.000  H
  C30      1.0000 0.61920  0.63810  0.71990  Biso   1.000  C
  H25      1.0000 0.65720  0.64750  0.73180  Biso   1.000  H
  H26      1.0000 0.62650  0.61410  0.69730  Biso   1.000  H
  C31      1.0000 0.59500  0.67670  0.69550  Biso   1.000  C
  C32      1.0000 0.58800  0.73440  0.65050  Biso   1.000  C
  H27      1.0000 0.63790  0.76300  0.60220  Biso   1.000  H
  H28      1.0000 0.59630  0.79820  0.62710  Biso   1.000  H
  H29      1.0000 0.57060  0.76400  0.59030  Biso   1.000  H
  C33      1.0000 0.81990  0.79210  0.64690  Biso   1.000  C
  C34      1.0000 0.87360  0.81590  0.63650  Biso   1.000  C
  C35      1.0000 0.91270  0.80740  0.60170  Biso   1.000  C
  H30      1.0000 0.90860  0.78120  0.58360  Biso   1.000  H
  C36      1.0000 0.95820  0.83780  0.59340  Biso   1.000  C
  C37      1.0000 0.97030  0.87130  0.62520  Biso   1.000  C
  H31      1.0000 0.00510  0.88810  0.62330  Biso   1.000  H
  C38      1.0000 0.93130  0.88010  0.65970  Biso   1.000  C
  H32      1.0000 0.93690  0.90530  0.67900  Biso   1.000  H
  C39      1.0000 0.88360  0.85200  0.66600  Biso   1.000  C
  H33      1.0000 0.85780  0.85740  0.69040  Biso   1.000  H
  C40      1.0000 0.00100  0.82750  0.55580  Biso   1.000  C
  H34      1.0000 0.02170  0.79950  0.56290  Biso   1.000  H
  H35      1.0000 0.02860  0.85240  0.55310  Biso   1.000  H
  H36      1.0000 0.98020  0.82390  0.52710  Biso   1.000  H
  C41      1.0000 0.03460  0.34290  0.60310  Biso   1.000  C
  C42      1.0000 0.02740  0.37360  0.56600  Biso   1.000  C
  C43      1.0000 0.97220  0.39060  0.55590  Biso   1.000  C
  H37      1.0000 0.93950  0.38100  0.57270  Biso   1.000  H
  C44      1.0000 0.96650  0.42200  0.52050  Biso   1.000  C
  C45      1.0000 0.01320  0.43550  0.49460  Biso   1.000  C
  H38      1.0000 0.00840  0.45620  0.47040  Biso   1.000  H
  C46      1.0000 0.06800  0.41770  0.50530  Biso   1.000  C
  C47      1.0000 0.07410  0.38810  0.53960  Biso   1.000  C
  H39      1.0000 0.11140  0.37660  0.54620  Biso   1.000  H
  C48      1.0000 0.86450  0.52300  0.60090  Biso   1.000  C
  H40      1.0000 0.82740  0.50910  0.60850  Biso   1.000  H
  H41      1.0000 0.85810  0.54890  0.58080  Biso   1.000  H
  H42      1.0000 0.88360  0.53320  0.62870  Biso   1.000  H
  C49      1.0000 0.90130  0.48970  0.57780  Biso   1.000  C
  H43      1.0000 0.91110  0.46600  0.60020  Biso   1.000  H
  H44      1.0000 0.93780  0.50510  0.56970  Biso   1.000  H
  C50      1.0000 0.87890  0.46590  0.53500  Biso   1.000  C
  C51      1.0000 0.87440  0.42610  0.47420  Biso   1.000  C
  C52      1.0000 0.89040  0.39030  0.44070  Biso   1.000  C
  H45      1.0000 0.87820  0.36080  0.45220  Biso   1.000  H
  H46      1.0000 0.93230  0.39030  0.43630  Biso   1.000  H
  H47      1.0000 0.87120  0.39630  0.41180  Biso   1.000  H
  C53      1.0000 0.12440  0.45520  0.44500  Biso   1.000  C
  C54      1.0000 0.18080  0.44910  0.41870  Biso   1.000  C
  C55      1.0000 0.21910  0.41350  0.42670  Biso   1.000  C
  H48      1.0000 0.21120  0.39260  0.45030  Biso   1.000  H
  C56      1.0000 0.26850  0.40810  0.40080  Biso   1.000  C
  C57      1.0000 0.27760  0.43510  0.36720  Biso   1.000  C
  H49      1.0000 0.30990  0.42940  0.34820  Biso   1.000  H
  C58      1.0000 0.24400  0.47110  0.35760  Biso   1.000  C
  H50      1.0000 0.25330  0.49030  0.33290  Biso   1.000  H
  C59      1.0000 0.19190  0.48050  0.38600  Biso   1.000  C
  H51      1.0000 0.16840  0.50630  0.38170  Biso   1.000  H
  C60      1.0000 0.30410  0.36740  0.40950  Biso   1.000  C
  H52      1.0000 0.28900  0.35140  0.43610  Biso   1.000  H
  H53      1.0000 0.34410  0.37640  0.41510  Biso   1.000  H
  H54      1.0000 0.30250  0.34740  0.38300  Biso   1.000  H
  C61      1.0000 0.50440  0.64640  0.34040  Biso   1.000  C
  C62      1.0000 0.50260  0.61800  0.38490  Biso   1.000  C
  C63      1.0000 0.55120  0.59050  0.39350  Biso   1.000  C
  H55      1.0000 0.58330  0.58950  0.37360  Biso   1.000  H
  C64      1.0000 0.54890  0.56530  0.43270  Biso   1.000  C
  C65      1.0000 0.50190  0.56480  0.46110  Biso   1.000  C
  H56      1.0000 0.50000  0.54470  0.48610  Biso   1.000  H
  C66      1.0000 0.45560  0.59610  0.45160  Biso   1.000  C
  C67      1.0000 0.45880  0.61940  0.41100  Biso   1.000  C
  H57      1.0000 0.42670  0.63720  0.40210  Biso   1.000  H
  C68      1.0000 0.63010  0.54670  0.48550  Biso   1.000  C
  C69      1.0000 0.62590  0.50290  0.42310  Biso   1.000  C
  C70      1.0000 0.60530  0.48430  0.38170  Biso   1.000  C
  H58      1.0000 0.61640  0.50390  0.35650  Biso   1.000  H
  H59      1.0000 0.56310  0.48180  0.38290  Biso   1.000  H
  H60      1.0000 0.62210  0.45430  0.37730  Biso   1.000  H
  C71      1.0000 0.39420  0.57600  0.51840  Biso   1.000  C
  C72      1.0000 0.33980  0.58650  0.54040  Biso   1.000  C
  C73      1.0000 0.30240  0.61830  0.52880  Biso   1.000  C
  H61      1.0000 0.30930  0.63510  0.50200  Biso   1.000  H
  C74      1.0000 0.25230  0.62830  0.55500  Biso   1.000  C
  C75      1.0000 0.24330  0.59980  0.59080  Biso   1.000  C
  H62      1.0000 0.20990  0.60530  0.60870  Biso   1.000  H
  C76      1.0000 0.27690  0.56480  0.60330  Biso   1.000  C
  H63      1.0000 0.26670  0.54480  0.62720  Biso   1.000  H
  C77      1.0000 0.32700  0.56030  0.57890  Biso   1.000  C
  H64      1.0000 0.35440  0.53840  0.58850  Biso   1.000  H
  C78      1.0000 0.21050  0.65840  0.54120  Biso   1.000  C
  H65      1.0000 0.20260  0.65390  0.50890  Biso   1.000  H
  H66      1.0000 0.22410  0.68930  0.54620  Biso   1.000  H
  H67      1.0000 0.17510  0.65330  0.55860  Biso   1.000  H
  Ag1      1.0000 0.74308  0.44525  0.43797  Biso   1.000  Ag
  Ag2      1.0000 0.75014  0.51320  0.53339  Biso   1.000  Ag
  Ag3      1.0000 0.97020  0.18510  0.24983  Biso   1.000  Ag
  Ag4      1.0000 0.96451  0.28007  0.17836  Biso   1.000  Ag
  N1       1.0000 0.89110  0.22990  0.25010  Biso   1.000  N
  N2       1.0000 0.89150  0.26940  0.22420  Biso   1.000  N
  N3       1.0000 0.81640  0.27050  0.26770  Biso   1.000  N
  N4       1.0000 0.60690  0.25950  0.29570  Biso   1.000  N
  H68      1.0000 0.57840  0.27310  0.30980  Biso   1.000  H
  N5       1.0000 0.53880  0.73190  0.67400  Biso   1.000  N
  N6       1.0000 0.54470  0.69750  0.70390  Biso   1.000  N
  N7       1.0000 0.62310  0.69970  0.66350  Biso   1.000  N
  N8       1.0000 0.81790  0.75460  0.62470  Biso   1.000  N
  H69      1.0000 0.84830  0.74890  0.60780  Biso   1.000  H
  N9       1.0000 0.82920  0.47150  0.51720  Biso   1.000  N
  N10      1.0000 0.82500  0.44480  0.48020  Biso   1.000  N
  N11      1.0000 0.90990  0.43730  0.51070  Biso   1.000  N
  N12      1.0000 0.11930  0.42790  0.48030  Biso   1.000  N
  H70      1.0000 0.15110  0.41450  0.48950  Biso   1.000  H
  N13      1.0000 0.67320  0.51770  0.48620  Biso   1.000  N
  N14      1.0000 0.66950  0.49080  0.44810  Biso   1.000  N
  N15      1.0000 0.59690  0.54100  0.44700  Biso   1.000  N
  N16      1.0000 0.40560  0.59740  0.47970  Biso   1.000  N
  H71      1.0000 0.37790  0.61530  0.46990  Biso   1.000  H
  O1       1.0000 0.68210  0.36840  0.41040  Biso   1.000  O
  O2       1.0000 0.76390  0.39560  0.37970  Biso   1.000  O
  O3       1.0000 0.62770  0.20810  0.24160  Biso   1.000  O
  O4       1.0000 0.73010  0.56900  0.58820  Biso   1.000  O
  O5       1.0000 0.78810  0.60400  0.54120  Biso   1.000  O
  O6       1.0000 0.78020  0.80400  0.67240  Biso   1.000  O
  O7       1.0000 0.00040  0.34510  0.63830  Biso   1.000  O
  O8       1.0000 0.07420  0.31190  0.59850  Biso   1.000  O
  O9       1.0000 0.08520  0.48090  0.43090  Biso   1.000  O
  O10      1.0000 0.54100  0.63580  0.31080  Biso   1.000  O
  O11      1.0000 0.47140  0.68160  0.33980  Biso   1.000  O
  O12      1.0000 0.43130  0.54870  0.53550  Biso   1.000  O
  C79      1.0000 0.62230  0.58280  0.51830  Biso   1.000  C
  C80      1.0000 0.59130  0.56590  0.55960  Biso   1.000  C
  H72      1.0000 0.58630  0.59070  0.58120  Biso   1.000  H
  H73      1.0000 0.61390  0.54180  0.57380  Biso   1.000  H
  H74      1.0000 0.55340  0.55420  0.55080  Biso   1.000  H
  H75      1.0000 0.59990  0.60760  0.50440  Biso   1.000  H
  H76      1.0000 0.66050  0.59490  0.52730  Biso   1.000  H
  C81      1.0000 0.60240  0.74850  0.56720  Biso   1.000  C
  H77      1.0000 0.59920  0.71560  0.56860  Biso   1.000  H
  H78      1.0000 0.63940  0.75680  0.55350  Biso   1.000  H
  H79      1.0000 0.57080  0.76070  0.54890  Biso   1.000  H
  H80      1.0000 0.63590  0.78320  0.62120  Biso   1.000  H
  H81      1.0000 0.56810  0.79060  0.61530  Biso   1.000  H
  H82      1.0000 0.59080  0.62680  0.74170  Biso   1.000  H
  H83      1.0000 0.65410  0.64750  0.73600  Biso   1.000  H
  H84      1.0000 0.62890  0.61420  0.69830  Biso   1.000  H
  C82      1.0000 0.86750  0.83000  0.64570  Biso   1.000  C
  C83      1.0000 0.90900  0.82410  0.61380  Biso   1.000  C
  H85      1.0000 0.90490  0.80090  0.59180  Biso   1.000  H
  C84      1.0000 0.95730  0.85170  0.61300  Biso   1.000  C
  C85      1.0000 0.96200  0.88440  0.64530  Biso   1.000  C
  H86      1.0000 0.99530  0.90300  0.64580  Biso   1.000  H
  C86      1.0000 0.91980  0.89090  0.67690  Biso   1.000  C
  H87      1.0000 0.92330  0.91470  0.69820  Biso   1.000  H
  C87      1.0000 0.87250  0.86320  0.67780  Biso   1.000  C
  H88      1.0000 0.84370  0.86690  0.70040  Biso   1.000  H
  C88      1.0000 0.00160  0.84720  0.57510  Biso   1.000  C
  H89      1.0000 0.99100  0.82200  0.55540  Biso   1.000  H
  H90      1.0000 0.03980  0.84170  0.58820  Biso   1.000  H
  H91      1.0000 0.00240  0.87520  0.55730  Biso   1.000  H
  C89      1.0000 0.62790  0.63000  0.50200  Biso   1.000  C
  H92      1.0000 0.62160  0.65080  0.52740  Biso   1.000  H
  H93      1.0000 0.59910  0.63570  0.47840  Biso   1.000  H
  H94      1.0000 0.66660  0.63470  0.48960  Biso   1.000  H
  H95      1.0000 0.65080  0.57830  0.54290  Biso   1.000  H
  H96      1.0000 0.58350  0.57940  0.53190  Biso   1.000  H
  C90      1.0000 0.22370  0.86750  0.87980  Biso   1.000  C
  C91      1.0000 0.21910  0.83200  0.84590  Biso   1.000  C
  C92      1.0000 0.26840  0.81830  0.82240  Biso   1.000  C
  H97      1.0000 0.30480  0.83170  0.82850  Biso   1.000  H
  C93      1.0000 0.26350  0.78520  0.79020  Biso   1.000  C
  C94      1.0000 0.21290  0.76560  0.77880  Biso   1.000  C
  H98      1.0000 0.21140  0.74360  0.75550  Biso   1.000  H
  C95      1.0000 0.16330  0.77830  0.80190  Biso   1.000  C
  C96      1.0000 0.16640  0.81080  0.83570  Biso   1.000  C
  H99      1.0000 0.13270  0.81870  0.85210  Biso   1.000  H
  C97      1.0000 0.29700  0.65760  0.78470  Biso   1.000  C
  H100     1.0000 0.28550  0.63440  0.80660  Biso   1.000  H
  H101     1.0000 0.32280  0.64440  0.76200  Biso   1.000  H
  H102     1.0000 0.26260  0.66970  0.76970  Biso   1.000  H
  C98      1.0000 0.32870  0.69630  0.80980  Biso   1.000  C
  H103     1.0000 0.30320  0.70960  0.83310  Biso   1.000  H
  H104     1.0000 0.36370  0.68450  0.82500  Biso   1.000  H
  C99      1.0000 0.34510  0.73150  0.77520  Biso   1.000  C
  C100     1.0000 0.34360  0.79310  0.73390  Biso   1.000  C
  C101     1.0000 0.32900  0.83680  0.71650  Biso   1.000  C
  H105     1.0000 0.34360  0.86010  0.73700  Biso   1.000  H
  H106     1.0000 0.28700  0.83950  0.71400  Biso   1.000  H
  H107     1.0000 0.34640  0.84080  0.68650  Biso   1.000  H
  C102     1.0000 0.09300  0.72320  0.77090  Biso   1.000  C
  C103     1.0000 0.03700  0.70050  0.77940  Biso   1.000  C
  C104     1.0000 0.02360  0.66300  0.75450  Biso   1.000  C
  H108     1.0000 0.04720  0.65490  0.72940  Biso   1.000  H
  C105     1.0000 0.97410  0.63570  0.76590  Biso   1.000  C
  C106     1.0000 0.93950  0.65200  0.79800  Biso   1.000  C
  H109     1.0000 0.90490  0.63580  0.80390  Biso   1.000  H
  C107     1.0000 0.94970  0.69130  0.82390  Biso   1.000  C
  H110     1.0000 0.92460  0.70070  0.84750  Biso   1.000  H
  C108     1.0000 0.99910  0.71490  0.81220  Biso   1.000  C
  H111     1.0000 0.00710  0.74240  0.82750  Biso   1.000  H
  C109     1.0000 0.96200  0.59520  0.73540  Biso   1.000  C
  H112     1.0000 0.95930  0.56790  0.75390  Biso   1.000  H
  H113     1.0000 0.99340  0.59190  0.71340  Biso   1.000  H
  H114     1.0000 0.92550  0.60000  0.71930  Biso   1.000  H
  C110     1.0000 0.25400  0.10130  0.07380  Biso   1.000  C
  C111     1.0000 0.24380  0.14620  0.10000  Biso   1.000  C
  C112     1.0000 0.18780  0.15200  0.12170  Biso   1.000  C
  H115     1.0000 0.15920  0.12910  0.12110  Biso   1.000  H
  C113     1.0000 0.17870  0.19380  0.14380  Biso   1.000  C
  C114     1.0000 0.21870  0.22640  0.14590  Biso   1.000  C
  H116     1.0000 0.21070  0.25330  0.16210  Biso   1.000  H
  C115     1.0000 0.27380  0.22100  0.12360  Biso   1.000  C
  C116     1.0000 0.28160  0.17990  0.10140  Biso   1.000  C
  H117     1.0000 0.31710  0.17560  0.08590  Biso   1.000  H
  C117     1.0000 0.09910  0.26770  0.11450  Biso   1.000  C
  C118     1.0000 0.08660  0.11680  0.25870  Biso   1.000  C
  H118     1.0000 0.05410  0.13620  0.26720  Biso   1.000  H
  H119     1.0000 0.11250  0.11310  0.28470  Biso   1.000  H
  H120     1.0000 0.07210  0.08720  0.24930  Biso   1.000  H
  C119     1.0000 0.11920  0.13810  0.21990  Biso   1.000  C
  H121     1.0000 0.15720  0.14750  0.23180  Biso   1.000  H
  H122     1.0000 0.12650  0.11410  0.19730  Biso   1.000  H
  C120     1.0000 0.09500  0.17670  0.19550  Biso   1.000  C
  C121     1.0000 0.08800  0.23440  0.15050  Biso   1.000  C
  H123     1.0000 0.13790  0.26300  0.10220  Biso   1.000  H
  H124     1.0000 0.09630  0.29820  0.12710  Biso   1.000  H
  H125     1.0000 0.07060  0.26400  0.09030  Biso   1.000  H
  C122     1.0000 0.31990  0.29210  0.14690  Biso   1.000  C
  C123     1.0000 0.37360  0.31590  0.13650  Biso   1.000  C
  C124     1.0000 0.41270  0.30740  0.10170  Biso   1.000  C
  H126     1.0000 0.40860  0.28120  0.08360  Biso   1.000  H
  C125     1.0000 0.45820  0.33780  0.09340  Biso   1.000  C
  C126     1.0000 0.47030  0.37130  0.12520  Biso   1.000  C
  H127     1.0000 0.50510  0.38810  0.12330  Biso   1.000  H
  C127     1.0000 0.43130  0.38010  0.15970  Biso   1.000  C
  H128     1.0000 0.43690  0.40530  0.17900  Biso   1.000  H
  C128     1.0000 0.38360  0.35200  0.16600  Biso   1.000  C
  H129     1.0000 0.35780  0.35740  0.19040  Biso   1.000  H
  C129     1.0000 0.50100  0.32750  0.05580  Biso   1.000  C
  H130     1.0000 0.52170  0.29950  0.06290  Biso   1.000  H
  H131     1.0000 0.52860  0.35240  0.05310  Biso   1.000  H
  H132     1.0000 0.48020  0.32390  0.02710  Biso   1.000  H
  C130     1.0000 0.53460  0.84290  0.10310  Biso   1.000  C
  C131     1.0000 0.52740  0.87360  0.06600  Biso   1.000  C
  C132     1.0000 0.47220  0.89060  0.05590  Biso   1.000  C
  H133     1.0000 0.43950  0.88100  0.07270  Biso   1.000  H
  C133     1.0000 0.46650  0.92200  0.02050  Biso   1.000  C
  C134     1.0000 0.51320  0.93550  0.99460  Biso   1.000  C
  H134     1.0000 0.50840  0.95620  0.97040  Biso   1.000  H
  C135     1.0000 0.56800  0.91770  0.00530  Biso   1.000  C
  C136     1.0000 0.57410  0.88810  0.03960  Biso   1.000  C
  H135     1.0000 0.61140  0.87660  0.04620  Biso   1.000  H
  C137     1.0000 0.36450  0.02300  0.10090  Biso   1.000  C
  H136     1.0000 0.32740  0.00910  0.10850  Biso   1.000  H
  H137     1.0000 0.35810  0.04890  0.08080  Biso   1.000  H
  H138     1.0000 0.38360  0.03320  0.12870  Biso   1.000  H
  C138     1.0000 0.40130  0.98970  0.07780  Biso   1.000  C
  H139     1.0000 0.41110  0.96600  0.10020  Biso   1.000  H
  H140     1.0000 0.43780  0.00510  0.06970  Biso   1.000  H
  C139     1.0000 0.37890  0.96590  0.03500  Biso   1.000  C
  C140     1.0000 0.37440  0.92610  0.97420  Biso   1.000  C
  C141     1.0000 0.39040  0.89030  0.94070  Biso   1.000  C
  H141     1.0000 0.37820  0.86080  0.95220  Biso   1.000  H
  H142     1.0000 0.43230  0.89030  0.93630  Biso   1.000  H
  H143     1.0000 0.37120  0.89630  0.91180  Biso   1.000  H
  C142     1.0000 0.62440  0.95520  0.94500  Biso   1.000  C
  C143     1.0000 0.68080  0.94910  0.91870  Biso   1.000  C
  C144     1.0000 0.71910  0.91350  0.92670  Biso   1.000  C
  H144     1.0000 0.71120  0.89260  0.95030  Biso   1.000  H
  C145     1.0000 0.76850  0.90810  0.90080  Biso   1.000  C
  C146     1.0000 0.77760  0.93510  0.86720  Biso   1.000  C
  H145     1.0000 0.80990  0.92940  0.84820  Biso   1.000  H
  C147     1.0000 0.74400  0.97110  0.85760  Biso   1.000  C
  H146     1.0000 0.75330  0.99030  0.83290  Biso   1.000  H
  C148     1.0000 0.69190  0.98050  0.88600  Biso   1.000  C
  H147     1.0000 0.66840  0.00630  0.88170  Biso   1.000  H
  C149     1.0000 0.80410  0.86740  0.90950  Biso   1.000  C
  H148     1.0000 0.78900  0.85140  0.93610  Biso   1.000  H
  H149     1.0000 0.84410  0.87640  0.91510  Biso   1.000  H
  H150     1.0000 0.80250  0.84740  0.88300  Biso   1.000  H
  C150     1.0000 0.00440  0.14640  0.84040  Biso   1.000  C
  C151     1.0000 0.00260  0.11800  0.88490  Biso   1.000  C
  C152     1.0000 0.05120  0.09050  0.89350  Biso   1.000  C
  H151     1.0000 0.08330  0.08950  0.87360  Biso   1.000  H
  C153     1.0000 0.04890  0.06530  0.93270  Biso   1.000  C
  C154     1.0000 0.00190  0.06480  0.96110  Biso   1.000  C
  H152     1.0000 0.00000  0.04470  0.98610  Biso   1.000  H
  C155     1.0000 0.95560  0.09610  0.95160  Biso   1.000  C
  C156     1.0000 0.95880  0.11940  0.91100  Biso   1.000  C
  H153     1.0000 0.92670  0.13720  0.90210  Biso   1.000  H
  C157     1.0000 0.13010  0.04670  0.98550  Biso   1.000  C
  C158     1.0000 0.12590  0.00290  0.92310  Biso   1.000  C
  C159     1.0000 0.10530  0.98430  0.88170  Biso   1.000  C
  H154     1.0000 0.11640  0.00390  0.85650  Biso   1.000  H
  H155     1.0000 0.06310  0.98180  0.88290  Biso   1.000  H
  H156     1.0000 0.12210  0.95430  0.87730  Biso   1.000  H
  C160     1.0000 0.89420  0.07600  0.01840  Biso   1.000  C
  C161     1.0000 0.83980  0.08650  0.04040  Biso   1.000  C
  C162     1.0000 0.80240  0.11830  0.02880  Biso   1.000  C
  H157     1.0000 0.80930  0.13510  0.00200  Biso   1.000  H
  C163     1.0000 0.75230  0.12830  0.05500  Biso   1.000  C
  C164     1.0000 0.74330  0.09980  0.09080  Biso   1.000  C
  H158     1.0000 0.70990  0.10530  0.10870  Biso   1.000  H
  C165     1.0000 0.77690  0.06480  0.10330  Biso   1.000  C
  H159     1.0000 0.76670  0.04480  0.12720  Biso   1.000  H
  C166     1.0000 0.82700  0.06030  0.07890  Biso   1.000  C
  H160     1.0000 0.85440  0.03840  0.08850  Biso   1.000  H
  C167     1.0000 0.71050  0.15840  0.04120  Biso   1.000  C
  H161     1.0000 0.70260  0.15390  0.00890  Biso   1.000  H
  H162     1.0000 0.72410  0.18930  0.04620  Biso   1.000  H
  H163     1.0000 0.67510  0.15330  0.05860  Biso   1.000  H
  Ag5      1.0000 0.24308  0.94525  0.93797  Biso   1.000  Ag
  Ag6      1.0000 0.25014  0.01320  0.03339  Biso   1.000  Ag
  Ag7      1.0000 0.47020  0.68510  0.74983  Biso   1.000  Ag
  Ag8      1.0000 0.46451  0.78007  0.67836  Biso   1.000  Ag
  N17      1.0000 0.39110  0.72990  0.75010  Biso   1.000  N
  N18      1.0000 0.39150  0.76940  0.72420  Biso   1.000  N
  N19      1.0000 0.31640  0.77050  0.76770  Biso   1.000  N
  N20      1.0000 0.10690  0.75950  0.79570  Biso   1.000  N
  H164     1.0000 0.07840  0.77310  0.80980  Biso   1.000  H
  N21      1.0000 0.03880  0.23190  0.17400  Biso   1.000  N
  N22      1.0000 0.04470  0.19750  0.20390  Biso   1.000  N
  N23      1.0000 0.12310  0.19970  0.16350  Biso   1.000  N
  N24      1.0000 0.31790  0.25460  0.12470  Biso   1.000  N
  H165     1.0000 0.34830  0.24890  0.10780  Biso   1.000  H
  N25      1.0000 0.32920  0.97150  0.01720  Biso   1.000  N
  N26      1.0000 0.32500  0.94480  0.98020  Biso   1.000  N
  N27      1.0000 0.40990  0.93730  0.01070  Biso   1.000  N
  N28      1.0000 0.61930  0.92790  0.98030  Biso   1.000  N
  H166     1.0000 0.65110  0.91450  0.98950  Biso   1.000  H
  N29      1.0000 0.17320  0.01770  0.98620  Biso   1.000  N
  N30      1.0000 0.16950  0.99080  0.94810  Biso   1.000  N
  N31      1.0000 0.09690  0.04100  0.94700  Biso   1.000  N
  N32      1.0000 0.90560  0.09740  0.97970  Biso   1.000  N
  H167     1.0000 0.87790  0.11530  0.96990  Biso   1.000  H
  O13      1.0000 0.18210  0.86840  0.91040  Biso   1.000  O
  O14      1.0000 0.26390  0.89560  0.87970  Biso   1.000  O
  O15      1.0000 0.12770  0.70810  0.74160  Biso   1.000  O
  O16      1.0000 0.23010  0.06900  0.08820  Biso   1.000  O
  O17      1.0000 0.28810  0.10400  0.04120  Biso   1.000  O
  O18      1.0000 0.28020  0.30400  0.17240  Biso   1.000  O
  O19      1.0000 0.50040  0.84510  0.13830  Biso   1.000  O
  O20      1.0000 0.57420  0.81190  0.09850  Biso   1.000  O
  O21      1.0000 0.58520  0.98090  0.93090  Biso   1.000  O
  O22      1.0000 0.04100  0.13580  0.81080  Biso   1.000  O
  O23      1.0000 0.97140  0.18160  0.83980  Biso   1.000  O
  O24      1.0000 0.93130  0.04870  0.03550  Biso   1.000  O
  C168     1.0000 0.12230  0.08280  0.01830  Biso   1.000  C
  C169     1.0000 0.09130  0.06590  0.05960  Biso   1.000  C
  H168     1.0000 0.08630  0.09070  0.08120  Biso   1.000  H
  H169     1.0000 0.11390  0.04180  0.07380  Biso   1.000  H
  H170     1.0000 0.05340  0.05420  0.05080  Biso   1.000  H
  H171     1.0000 0.09990  0.10760  0.00440  Biso   1.000  H
  H172     1.0000 0.16050  0.09490  0.02730  Biso   1.000  H
  C170     1.0000 0.10240  0.24850  0.06720  Biso   1.000  C
  H173     1.0000 0.09920  0.21560  0.06860  Biso   1.000  H
  H174     1.0000 0.13940  0.25680  0.05350  Biso   1.000  H
  H175     1.0000 0.07080  0.26070  0.04890  Biso   1.000  H
  H176     1.0000 0.13590  0.28320  0.12120  Biso   1.000  H
  H177     1.0000 0.06810  0.29060  0.11530  Biso   1.000  H
  H178     1.0000 0.09080  0.12680  0.24170  Biso   1.000  H
  H179     1.0000 0.15410  0.14750  0.23600  Biso   1.000  H
  H180     1.0000 0.12890  0.11420  0.19830  Biso   1.000  H
  C171     1.0000 0.36750  0.33000  0.14570  Biso   1.000  C
  C172     1.0000 0.40900  0.32410  0.11380  Biso   1.000  C
  H181     1.0000 0.40490  0.30090  0.09180  Biso   1.000  H
  C173     1.0000 0.45730  0.35170  0.11300  Biso   1.000  C
  C174     1.0000 0.46200  0.38440  0.14530  Biso   1.000  C
  H182     1.0000 0.49530  0.40300  0.14580  Biso   1.000  H
  C175     1.0000 0.41980  0.39090  0.17690  Biso   1.000  C
  H183     1.0000 0.42330  0.41470  0.19820  Biso   1.000  H
  C176     1.0000 0.37250  0.36320  0.17780  Biso   1.000  C
  H184     1.0000 0.34370  0.36690  0.20040  Biso   1.000  H
  C177     1.0000 0.50160  0.34720  0.07510  Biso   1.000  C
  H185     1.0000 0.49100  0.32200  0.05540  Biso   1.000  H
  H186     1.0000 0.53980  0.34170  0.08820  Biso   1.000  H
  H187     1.0000 0.50240  0.37520  0.05730  Biso   1.000  H
  C178     1.0000 0.12790  0.13000  0.00200  Biso   1.000  C
  H188     1.0000 0.12160  0.15080  0.02740  Biso   1.000  H
  H189     1.0000 0.09910  0.13570  0.97840  Biso   1.000  H
  H190     1.0000 0.16660  0.13470  0.98960  Biso   1.000  H
  H191     1.0000 0.15080  0.07830  0.04290  Biso   1.000  H
  H192     1.0000 0.08350  0.07940  0.03190  Biso   1.000  H
  C179     1.0000 0.77630  0.86750  0.37980  Biso   1.000  C
  C180     1.0000 0.78090  0.83200  0.34590  Biso   1.000  C
  C181     1.0000 0.73160  0.81830  0.32240  Biso   1.000  C
  H193     1.0000 0.69520  0.83170  0.32850  Biso   1.000  H
  C182     1.0000 0.73650  0.78520  0.29020  Biso   1.000  C
  C183     1.0000 0.78710  0.76560  0.27880  Biso   1.000  C
  H194     1.0000 0.78860  0.74360  0.25550  Biso   1.000  H
  C184     1.0000 0.83670  0.77830  0.30190  Biso   1.000  C
  C185     1.0000 0.83360  0.81080  0.33570  Biso   1.000  C
  H195     1.0000 0.86730  0.81870  0.35210  Biso   1.000  H
  C186     1.0000 0.70300  0.65760  0.28470  Biso   1.000  C
  H196     1.0000 0.71450  0.63440  0.30660  Biso   1.000  H
  H197     1.0000 0.67720  0.64440  0.26200  Biso   1.000  H
  H198     1.0000 0.73740  0.66970  0.26970  Biso   1.000  H
  C187     1.0000 0.67130  0.69630  0.30980  Biso   1.000  C
  H199     1.0000 0.69680  0.70960  0.33310  Biso   1.000  H
  H200     1.0000 0.63630  0.68450  0.32500  Biso   1.000  H
  C188     1.0000 0.65490  0.73150  0.27520  Biso   1.000  C
  C189     1.0000 0.65640  0.79310  0.23390  Biso   1.000  C
  C190     1.0000 0.67100  0.83680  0.21650  Biso   1.000  C
  H201     1.0000 0.65640  0.86010  0.23700  Biso   1.000  H
  H202     1.0000 0.71300  0.83950  0.21400  Biso   1.000  H
  H203     1.0000 0.65360  0.84080  0.18650  Biso   1.000  H
  C191     1.0000 0.90700  0.72320  0.27090  Biso   1.000  C
  C192     1.0000 0.96300  0.70050  0.27940  Biso   1.000  C
  C193     1.0000 0.97640  0.66300  0.25450  Biso   1.000  C
  H204     1.0000 0.95280  0.65490  0.22940  Biso   1.000  H
  C194     1.0000 0.02590  0.63570  0.26590  Biso   1.000  C
  C195     1.0000 0.06050  0.65200  0.29800  Biso   1.000  C
  H205     1.0000 0.09510  0.63580  0.30390  Biso   1.000  H
  C196     1.0000 0.05030  0.69130  0.32390  Biso   1.000  C
  H206     1.0000 0.07540  0.70070  0.34750  Biso   1.000  H
  C197     1.0000 0.00090  0.71490  0.31220  Biso   1.000  C
  H207     1.0000 0.99290  0.74240  0.32750  Biso   1.000  H
  C198     1.0000 0.03800  0.59520  0.23540  Biso   1.000  C
  H208     1.0000 0.04070  0.56790  0.25390  Biso   1.000  H
  H209     1.0000 0.00660  0.59190  0.21340  Biso   1.000  H
  H210     1.0000 0.07450  0.60000  0.21930  Biso   1.000  H
  C199     1.0000 0.74600  0.10130  0.57380  Biso   1.000  C
  C200     1.0000 0.75620  0.14620  0.60000  Biso   1.000  C
  C201     1.0000 0.81220  0.15200  0.62170  Biso   1.000  C
  H211     1.0000 0.84080  0.12910  0.62110  Biso   1.000  H
  C202     1.0000 0.82130  0.19380  0.64380  Biso   1.000  C
  C203     1.0000 0.78130  0.22640  0.64590  Biso   1.000  C
  H212     1.0000 0.78930  0.25330  0.66210  Biso   1.000  H
  C204     1.0000 0.72620  0.22100  0.62360  Biso   1.000  C
  C205     1.0000 0.71840  0.17990  0.60140  Biso   1.000  C
  H213     1.0000 0.68290  0.17560  0.58590  Biso   1.000  H
  C206     1.0000 0.90090  0.26770  0.61450  Biso   1.000  C
  C207     1.0000 0.91340  0.11680  0.75870  Biso   1.000  C
  H214     1.0000 0.94590  0.13620  0.76720  Biso   1.000  H
  H215     1.0000 0.88750  0.11310  0.78470  Biso   1.000  H
  H216     1.0000 0.92790  0.08720  0.74930  Biso   1.000  H
  C208     1.0000 0.88080  0.13810  0.71990  Biso   1.000  C
  H217     1.0000 0.84280  0.14750  0.73180  Biso   1.000  H
  H218     1.0000 0.87350  0.11410  0.69730  Biso   1.000  H
  C209     1.0000 0.90500  0.17670  0.69550  Biso   1.000  C
  C210     1.0000 0.91200  0.23440  0.65050  Biso   1.000  C
  H219     1.0000 0.86210  0.26300  0.60220  Biso   1.000  H
  H220     1.0000 0.90370  0.29820  0.62710  Biso   1.000  H
  H221     1.0000 0.92940  0.26400  0.59030  Biso   1.000  H
  C211     1.0000 0.68010  0.29210  0.64690  Biso   1.000  C
  C212     1.0000 0.62640  0.31590  0.63650  Biso   1.000  C
  C213     1.0000 0.58730  0.30740  0.60170  Biso   1.000  C
  H222     1.0000 0.59140  0.28120  0.58360  Biso   1.000  H
  C214     1.0000 0.54180  0.33780  0.59340  Biso   1.000  C
  C215     1.0000 0.52970  0.37130  0.62520  Biso   1.000  C
  H223     1.0000 0.49490  0.38810  0.62330  Biso   1.000  H
  C216     1.0000 0.56870  0.38010  0.65970  Biso   1.000  C
  H224     1.0000 0.56310  0.40530  0.67900  Biso   1.000  H
  C217     1.0000 0.61640  0.35200  0.66600  Biso   1.000  C
  H225     1.0000 0.64220  0.35740  0.69040  Biso   1.000  H
  C218     1.0000 0.49900  0.32750  0.55580  Biso   1.000  C
  H226     1.0000 0.47830  0.29950  0.56290  Biso   1.000  H
  H227     1.0000 0.47140  0.35240  0.55310  Biso   1.000  H
  H228     1.0000 0.51980  0.32390  0.52710  Biso   1.000  H
  C219     1.0000 0.46540  0.84290  0.60310  Biso   1.000  C
  C220     1.0000 0.47260  0.87360  0.56600  Biso   1.000  C
  C221     1.0000 0.52780  0.89060  0.55590  Biso   1.000  C
  H229     1.0000 0.56050  0.88100  0.57270  Biso   1.000  H
  C222     1.0000 0.53350  0.92200  0.52050  Biso   1.000  C
  C223     1.0000 0.48680  0.93550  0.49460  Biso   1.000  C
  H230     1.0000 0.49160  0.95620  0.47040  Biso   1.000  H
  C224     1.0000 0.43200  0.91770  0.50530  Biso   1.000  C
  C225     1.0000 0.42590  0.88810  0.53960  Biso   1.000  C
  H231     1.0000 0.38860  0.87660  0.54620  Biso   1.000  H
  C226     1.0000 0.63550  0.02300  0.60090  Biso   1.000  C
  H232     1.0000 0.67260  0.00910  0.60850  Biso   1.000  H
  H233     1.0000 0.64190  0.04890  0.58080  Biso   1.000  H
  H234     1.0000 0.61640  0.03320  0.62870  Biso   1.000  H
  C227     1.0000 0.59870  0.98970  0.57780  Biso   1.000  C
  H235     1.0000 0.58890  0.96600  0.60020  Biso   1.000  H
  H236     1.0000 0.56220  0.00510  0.56970  Biso   1.000  H
  C228     1.0000 0.62110  0.96590  0.53500  Biso   1.000  C
  C229     1.0000 0.62560  0.92610  0.47420  Biso   1.000  C
  C230     1.0000 0.60960  0.89030  0.44070  Biso   1.000  C
  H237     1.0000 0.62180  0.86080  0.45220  Biso   1.000  H
  H238     1.0000 0.56770  0.89030  0.43630  Biso   1.000  H
  H239     1.0000 0.62880  0.89630  0.41180  Biso   1.000  H
  C231     1.0000 0.37560  0.95520  0.44500  Biso   1.000  C
  C232     1.0000 0.31920  0.94910  0.41870  Biso   1.000  C
  C233     1.0000 0.28090  0.91350  0.42670  Biso   1.000  C
  H240     1.0000 0.28880  0.89260  0.45030  Biso   1.000  H
  C234     1.0000 0.23150  0.90810  0.40080  Biso   1.000  C
  C235     1.0000 0.22240  0.93510  0.36720  Biso   1.000  C
  H241     1.0000 0.19010  0.92940  0.34820  Biso   1.000  H
  C236     1.0000 0.25600  0.97110  0.35760  Biso   1.000  C
  H242     1.0000 0.24670  0.99030  0.33290  Biso   1.000  H
  C237     1.0000 0.30810  0.98050  0.38600  Biso   1.000  C
  H243     1.0000 0.33160  0.00630  0.38170  Biso   1.000  H
  C238     1.0000 0.19590  0.86740  0.40950  Biso   1.000  C
  H244     1.0000 0.21100  0.85140  0.43610  Biso   1.000  H
  H245     1.0000 0.15590  0.87640  0.41510  Biso   1.000  H
  H246     1.0000 0.19750  0.84740  0.38300  Biso   1.000  H
  C239     1.0000 0.99560  0.14640  0.34040  Biso   1.000  C
  C240     1.0000 0.99740  0.11800  0.38490  Biso   1.000  C
  C241     1.0000 0.94880  0.09050  0.39350  Biso   1.000  C
  H247     1.0000 0.91670  0.08950  0.37360  Biso   1.000  H
  C242     1.0000 0.95110  0.06530  0.43270  Biso   1.000  C
  C243     1.0000 0.99810  0.06480  0.46110  Biso   1.000  C
  H248     1.0000 0.00000  0.04470  0.48610  Biso   1.000  H
  C244     1.0000 0.04440  0.09610  0.45160  Biso   1.000  C
  C245     1.0000 0.04120  0.11940  0.41100  Biso   1.000  C
  H249     1.0000 0.07330  0.13720  0.40210  Biso   1.000  H
  C246     1.0000 0.86990  0.04670  0.48550  Biso   1.000  C
  C247     1.0000 0.87410  0.00290  0.42310  Biso   1.000  C
  C248     1.0000 0.89470  0.98430  0.38170  Biso   1.000  C
  H250     1.0000 0.88360  0.00390  0.35650  Biso   1.000  H
  H251     1.0000 0.93690  0.98180  0.38290  Biso   1.000  H
  H252     1.0000 0.87790  0.95430  0.37730  Biso   1.000  H
  C249     1.0000 0.10580  0.07600  0.51840  Biso   1.000  C
  C250     1.0000 0.16020  0.08650  0.54040  Biso   1.000  C
  C251     1.0000 0.19760  0.11830  0.52880  Biso   1.000  C
  H253     1.0000 0.19070  0.13510  0.50200  Biso   1.000  H
  C252     1.0000 0.24770  0.12830  0.55500  Biso   1.000  C
  C253     1.0000 0.25670  0.09980  0.59080  Biso   1.000  C
  H254     1.0000 0.29010  0.10530  0.60870  Biso   1.000  H
  C254     1.0000 0.22310  0.06480  0.60330  Biso   1.000  C
  H255     1.0000 0.23330  0.04480  0.62720  Biso   1.000  H
  C255     1.0000 0.17300  0.06030  0.57890  Biso   1.000  C
  H256     1.0000 0.14560  0.03840  0.58850  Biso   1.000  H
  C256     1.0000 0.28950  0.15840  0.54120  Biso   1.000  C
  H257     1.0000 0.29740  0.15390  0.50890  Biso   1.000  H
  H258     1.0000 0.27590  0.18930  0.54620  Biso   1.000  H
  H259     1.0000 0.32490  0.15330  0.55860  Biso   1.000  H
  Ag9      1.0000 0.75692  0.94525  0.43797  Biso   1.000  Ag
  Ag10     1.0000 0.74986  0.01320  0.53339  Biso   1.000  Ag
  Ag11     1.0000 0.52980  0.68510  0.24983  Biso   1.000  Ag
  Ag12     1.0000 0.53549  0.78007  0.17836  Biso   1.000  Ag
  N33      1.0000 0.60890  0.72990  0.25010  Biso   1.000  N
  N34      1.0000 0.60850  0.76940  0.22420  Biso   1.000  N
  N35      1.0000 0.68360  0.77050  0.26770  Biso   1.000  N
  N36      1.0000 0.89310  0.75950  0.29570  Biso   1.000  N
  H260     1.0000 0.92160  0.77310  0.30980  Biso   1.000  H
  N37      1.0000 0.96120  0.23190  0.67400  Biso   1.000  N
  N38      1.0000 0.95530  0.19750  0.70390  Biso   1.000  N
  N39      1.0000 0.87690  0.19970  0.66350  Biso   1.000  N
  N40      1.0000 0.68210  0.25460  0.62470  Biso   1.000  N
  H261     1.0000 0.65170  0.24890  0.60780  Biso   1.000  H
  N41      1.0000 0.67080  0.97150  0.51720  Biso   1.000  N
  N42      1.0000 0.67500  0.94480  0.48020  Biso   1.000  N
  N43      1.0000 0.59010  0.93730  0.51070  Biso   1.000  N
  N44      1.0000 0.38070  0.92790  0.48030  Biso   1.000  N
  H262     1.0000 0.34890  0.91450  0.48950  Biso   1.000  H
  N45      1.0000 0.82680  0.01770  0.48620  Biso   1.000  N
  N46      1.0000 0.83050  0.99080  0.44810  Biso   1.000  N
  N47      1.0000 0.90310  0.04100  0.44700  Biso   1.000  N
  N48      1.0000 0.09440  0.09740  0.47970  Biso   1.000  N
  H263     1.0000 0.12210  0.11530  0.46990  Biso   1.000  H
  O25      1.0000 0.81790  0.86840  0.41040  Biso   1.000  O
  O26      1.0000 0.73610  0.89560  0.37970  Biso   1.000  O
  O27      1.0000 0.87230  0.70810  0.24160  Biso   1.000  O
  O28      1.0000 0.76990  0.06900  0.58820  Biso   1.000  O
  O29      1.0000 0.71190  0.10400  0.54120  Biso   1.000  O
  O30      1.0000 0.71980  0.30400  0.67240  Biso   1.000  O
  O31      1.0000 0.49960  0.84510  0.63830  Biso   1.000  O
  O32      1.0000 0.42580  0.81190  0.59850  Biso   1.000  O
  O33      1.0000 0.41480  0.98090  0.43090  Biso   1.000  O
  O34      1.0000 0.95900  0.13580  0.31080  Biso   1.000  O
  O35      1.0000 0.02860  0.18160  0.33980  Biso   1.000  O
  O36      1.0000 0.06870  0.04870  0.53550  Biso   1.000  O
  C257     1.0000 0.87770  0.08280  0.51830  Biso   1.000  C
  C258     1.0000 0.90870  0.06590  0.55960  Biso   1.000  C
  H264     1.0000 0.91370  0.09070  0.58120  Biso   1.000  H
  H265     1.0000 0.88610  0.04180  0.57380  Biso   1.000  H
  H266     1.0000 0.94660  0.05420  0.55080  Biso   1.000  H
  H267     1.0000 0.90010  0.10760  0.50440  Biso   1.000  H
  H268     1.0000 0.83950  0.09490  0.52730  Biso   1.000  H
  C259     1.0000 0.89760  0.24850  0.56720  Biso   1.000  C
  H269     1.0000 0.90080  0.21560  0.56860  Biso   1.000  H
  H270     1.0000 0.86060  0.25680  0.55350  Biso   1.000  H
  H271     1.0000 0.92920  0.26070  0.54890  Biso   1.000  H
  H272     1.0000 0.86410  0.28320  0.62120  Biso   1.000  H
  H273     1.0000 0.93190  0.29060  0.61530  Biso   1.000  H
  H274     1.0000 0.90920  0.12680  0.74170  Biso   1.000  H
  H275     1.0000 0.84590  0.14750  0.73600  Biso   1.000  H
  H276     1.0000 0.87110  0.11420  0.69830  Biso   1.000  H
  C260     1.0000 0.63250  0.33000  0.64570  Biso   1.000  C
  C261     1.0000 0.59100  0.32410  0.61380  Biso   1.000  C
  H277     1.0000 0.59510  0.30090  0.59180  Biso   1.000  H
  C262     1.0000 0.54270  0.35170  0.61300  Biso   1.000  C
  C263     1.0000 0.53800  0.38440  0.64530  Biso   1.000  C
  H278     1.0000 0.50470  0.40300  0.64580  Biso   1.000  H
  C264     1.0000 0.58020  0.39090  0.67690  Biso   1.000  C
  H279     1.0000 0.57670  0.41470  0.69820  Biso   1.000  H
  C265     1.0000 0.62750  0.36320  0.67780  Biso   1.000  C
  H280     1.0000 0.65630  0.36690  0.70040  Biso   1.000  H
  C266     1.0000 0.49840  0.34720  0.57510  Biso   1.000  C
  H281     1.0000 0.50900  0.32200  0.55540  Biso   1.000  H
  H282     1.0000 0.46020  0.34170  0.58820  Biso   1.000  H
  H283     1.0000 0.49760  0.37520  0.55730  Biso   1.000  H
  C267     1.0000 0.87210  0.13000  0.50200  Biso   1.000  C
  H284     1.0000 0.87840  0.15080  0.52740  Biso   1.000  H
  H285     1.0000 0.90090  0.13570  0.47840  Biso   1.000  H
  H286     1.0000 0.83340  0.13470  0.48960  Biso   1.000  H
  H287     1.0000 0.84920  0.07830  0.54290  Biso   1.000  H
  H288     1.0000 0.91650  0.07940  0.53190  Biso   1.000  H
  C268     1.0000 0.27630  0.36750  0.87980  Biso   1.000  C
  C269     1.0000 0.28090  0.33200  0.84590  Biso   1.000  C
  C270     1.0000 0.23160  0.31830  0.82240  Biso   1.000  C
  H289     1.0000 0.19520  0.33170  0.82850  Biso   1.000  H
  C271     1.0000 0.23650  0.28520  0.79020  Biso   1.000  C
  C272     1.0000 0.28710  0.26560  0.77880  Biso   1.000  C
  H290     1.0000 0.28860  0.24360  0.75550  Biso   1.000  H
  C273     1.0000 0.33670  0.27830  0.80190  Biso   1.000  C
  C274     1.0000 0.33360  0.31080  0.83570  Biso   1.000  C
  H291     1.0000 0.36730  0.31870  0.85210  Biso   1.000  H
  C275     1.0000 0.20300  0.15760  0.78470  Biso   1.000  C
  H292     1.0000 0.21450  0.13440  0.80660  Biso   1.000  H
  H293     1.0000 0.17720  0.14440  0.76200  Biso   1.000  H
  H294     1.0000 0.23740  0.16970  0.76970  Biso   1.000  H
  C276     1.0000 0.17130  0.19630  0.80980  Biso   1.000  C
  H295     1.0000 0.19680  0.20960  0.83310  Biso   1.000  H
  H296     1.0000 0.13630  0.18450  0.82500  Biso   1.000  H
  C277     1.0000 0.15490  0.23150  0.77520  Biso   1.000  C
  C278     1.0000 0.15640  0.29310  0.73390  Biso   1.000  C
  C279     1.0000 0.17100  0.33680  0.71650  Biso   1.000  C
  H297     1.0000 0.15640  0.36010  0.73700  Biso   1.000  H
  H298     1.0000 0.21300  0.33950  0.71400  Biso   1.000  H
  H299     1.0000 0.15360  0.34080  0.68650  Biso   1.000  H
  C280     1.0000 0.40700  0.22320  0.77090  Biso   1.000  C
  C281     1.0000 0.46300  0.20050  0.77940  Biso   1.000  C
  C282     1.0000 0.47640  0.16300  0.75450  Biso   1.000  C
  H300     1.0000 0.45280  0.15490  0.72940  Biso   1.000  H
  C283     1.0000 0.52590  0.13570  0.76590  Biso   1.000  C
  C284     1.0000 0.56050  0.15200  0.79800  Biso   1.000  C
  H301     1.0000 0.59510  0.13580  0.80390  Biso   1.000  H
  C285     1.0000 0.55030  0.19130  0.82390  Biso   1.000  C
  H302     1.0000 0.57540  0.20070  0.84750  Biso   1.000  H
  C286     1.0000 0.50090  0.21490  0.81220  Biso   1.000  C
  H303     1.0000 0.49290  0.24240  0.82750  Biso   1.000  H
  C287     1.0000 0.53800  0.09520  0.73540  Biso   1.000  C
  H304     1.0000 0.54070  0.06790  0.75390  Biso   1.000  H
  H305     1.0000 0.50660  0.09190  0.71340  Biso   1.000  H
  H306     1.0000 0.57450  0.10000  0.71930  Biso   1.000  H
  C288     1.0000 0.24600  0.60130  0.07380  Biso   1.000  C
  C289     1.0000 0.25620  0.64620  0.10000  Biso   1.000  C
  C290     1.0000 0.31220  0.65200  0.12170  Biso   1.000  C
  H307     1.0000 0.34080  0.62910  0.12110  Biso   1.000  H
  C291     1.0000 0.32130  0.69380  0.14380  Biso   1.000  C
  C292     1.0000 0.28130  0.72640  0.14590  Biso   1.000  C
  H308     1.0000 0.28930  0.75330  0.16210  Biso   1.000  H
  C293     1.0000 0.22620  0.72100  0.12360  Biso   1.000  C
  C294     1.0000 0.21840  0.67990  0.10140  Biso   1.000  C
  H309     1.0000 0.18290  0.67560  0.08590  Biso   1.000  H
  C295     1.0000 0.40090  0.76770  0.11450  Biso   1.000  C
  C296     1.0000 0.41340  0.61680  0.25870  Biso   1.000  C
  H310     1.0000 0.44590  0.63620  0.26720  Biso   1.000  H
  H311     1.0000 0.38750  0.61310  0.28470  Biso   1.000  H
  H312     1.0000 0.42790  0.58720  0.24930  Biso   1.000  H
  C297     1.0000 0.38080  0.63810  0.21990  Biso   1.000  C
  H313     1.0000 0.34280  0.64750  0.23180  Biso   1.000  H
  H314     1.0000 0.37350  0.61410  0.19730  Biso   1.000  H
  C298     1.0000 0.40500  0.67670  0.19550  Biso   1.000  C
  C299     1.0000 0.41200  0.73440  0.15050  Biso   1.000  C
  H315     1.0000 0.36210  0.76300  0.10220  Biso   1.000  H
  H316     1.0000 0.40370  0.79820  0.12710  Biso   1.000  H
  H317     1.0000 0.42940  0.76400  0.09030  Biso   1.000  H
  C300     1.0000 0.18010  0.79210  0.14690  Biso   1.000  C
  C301     1.0000 0.12640  0.81590  0.13650  Biso   1.000  C
  C302     1.0000 0.08730  0.80740  0.10170  Biso   1.000  C
  H318     1.0000 0.09140  0.78120  0.08360  Biso   1.000  H
  C303     1.0000 0.04180  0.83780  0.09340  Biso   1.000  C
  C304     1.0000 0.02970  0.87130  0.12520  Biso   1.000  C
  H319     1.0000 0.99490  0.88810  0.12330  Biso   1.000  H
  C305     1.0000 0.06870  0.88010  0.15970  Biso   1.000  C
  H320     1.0000 0.06310  0.90530  0.17900  Biso   1.000  H
  C306     1.0000 0.11640  0.85200  0.16600  Biso   1.000  C
  H321     1.0000 0.14220  0.85740  0.19040  Biso   1.000  H
  C307     1.0000 0.99900  0.82750  0.05580  Biso   1.000  C
  H322     1.0000 0.97830  0.79950  0.06290  Biso   1.000  H
  H323     1.0000 0.97140  0.85240  0.05310  Biso   1.000  H
  H324     1.0000 0.01980  0.82390  0.02710  Biso   1.000  H
  C308     1.0000 0.96540  0.34290  0.10310  Biso   1.000  C
  C309     1.0000 0.97260  0.37360  0.06600  Biso   1.000  C
  C310     1.0000 0.02780  0.39060  0.05590  Biso   1.000  C
  H325     1.0000 0.06050  0.38100  0.07270  Biso   1.000  H
  C311     1.0000 0.03350  0.42200  0.02050  Biso   1.000  C
  C312     1.0000 0.98680  0.43550  0.99460  Biso   1.000  C
  H326     1.0000 0.99160  0.45620  0.97040  Biso   1.000  H
  C313     1.0000 0.93200  0.41770  0.00530  Biso   1.000  C
  C314     1.0000 0.92590  0.38810  0.03960  Biso   1.000  C
  H327     1.0000 0.88860  0.37660  0.04620  Biso   1.000  H
  C315     1.0000 0.13550  0.52300  0.10090  Biso   1.000  C
  H328     1.0000 0.17260  0.50910  0.10850  Biso   1.000  H
  H329     1.0000 0.14190  0.54890  0.08080  Biso   1.000  H
  H330     1.0000 0.11640  0.53320  0.12870  Biso   1.000  H
  C316     1.0000 0.09870  0.48970  0.07780  Biso   1.000  C
  H331     1.0000 0.08890  0.46600  0.10020  Biso   1.000  H
  H332     1.0000 0.06220  0.50510  0.06970  Biso   1.000  H
  C317     1.0000 0.12110  0.46590  0.03500  Biso   1.000  C
  C318     1.0000 0.12560  0.42610  0.97420  Biso   1.000  C
  C319     1.0000 0.10960  0.39030  0.94070  Biso   1.000  C
  H333     1.0000 0.12180  0.36080  0.95220  Biso   1.000  H
  H334     1.0000 0.06770  0.39030  0.93630  Biso   1.000  H
  H335     1.0000 0.12880  0.39630  0.91180  Biso   1.000  H
  C320     1.0000 0.87560  0.45520  0.94500  Biso   1.000  C
  C321     1.0000 0.81920  0.44910  0.91870  Biso   1.000  C
  C322     1.0000 0.78090  0.41350  0.92670  Biso   1.000  C
  H336     1.0000 0.78880  0.39260  0.95030  Biso   1.000  H
  C323     1.0000 0.73150  0.40810  0.90080  Biso   1.000  C
  C324     1.0000 0.72240  0.43510  0.86720  Biso   1.000  C
  H337     1.0000 0.69010  0.42940  0.84820  Biso   1.000  H
  C325     1.0000 0.75600  0.47110  0.85760  Biso   1.000  C
  H338     1.0000 0.74670  0.49030  0.83290  Biso   1.000  H
  C326     1.0000 0.80810  0.48050  0.88600  Biso   1.000  C
  H339     1.0000 0.83160  0.50630  0.88170  Biso   1.000  H
  C327     1.0000 0.69590  0.36740  0.90950  Biso   1.000  C
  H340     1.0000 0.71100  0.35140  0.93610  Biso   1.000  H
  H341     1.0000 0.65590  0.37640  0.91510  Biso   1.000  H
  H342     1.0000 0.69750  0.34740  0.88300  Biso   1.000  H
  C328     1.0000 0.49560  0.64640  0.84040  Biso   1.000  C
  C329     1.0000 0.49740  0.61800  0.88490  Biso   1.000  C
  C330     1.0000 0.44880  0.59050  0.89350  Biso   1.000  C
  H343     1.0000 0.41670  0.58950  0.87360  Biso   1.000  H
  C331     1.0000 0.45110  0.56530  0.93270  Biso   1.000  C
  C332     1.0000 0.49810  0.56480  0.96110  Biso   1.000  C
  H344     1.0000 0.50000  0.54470  0.98610  Biso   1.000  H
  C333     1.0000 0.54440  0.59610  0.95160  Biso   1.000  C
  C334     1.0000 0.54120  0.61940  0.91100  Biso   1.000  C
  H345     1.0000 0.57330  0.63720  0.90210  Biso   1.000  H
  C335     1.0000 0.36990  0.54670  0.98550  Biso   1.000  C
  C336     1.0000 0.37410  0.50290  0.92310  Biso   1.000  C
  C337     1.0000 0.39470  0.48430  0.88170  Biso   1.000  C
  H346     1.0000 0.38360  0.50390  0.85650  Biso   1.000  H
  H347     1.0000 0.43690  0.48180  0.88290  Biso   1.000  H
  H348     1.0000 0.37790  0.45430  0.87730  Biso   1.000  H
  C338     1.0000 0.60580  0.57600  0.01840  Biso   1.000  C
  C339     1.0000 0.66020  0.58650  0.04040  Biso   1.000  C
  C340     1.0000 0.69760  0.61830  0.02880  Biso   1.000  C
  H349     1.0000 0.69070  0.63510  0.00200  Biso   1.000  H
  C341     1.0000 0.74770  0.62830  0.05500  Biso   1.000  C
  C342     1.0000 0.75670  0.59980  0.09080  Biso   1.000  C
  H350     1.0000 0.79010  0.60530  0.10870  Biso   1.000  H
  C343     1.0000 0.72310  0.56480  0.10330  Biso   1.000  C
  H351     1.0000 0.73330  0.54480  0.12720  Biso   1.000  H
  C344     1.0000 0.67300  0.56030  0.07890  Biso   1.000  C
  H352     1.0000 0.64560  0.53840  0.08850  Biso   1.000  H
  C345     1.0000 0.78950  0.65840  0.04120  Biso   1.000  C
  H353     1.0000 0.79740  0.65390  0.00890  Biso   1.000  H
  H354     1.0000 0.77590  0.68930  0.04620  Biso   1.000  H
  H355     1.0000 0.82490  0.65330  0.05860  Biso   1.000  H
  Ag13     1.0000 0.25692  0.44525  0.93797  Biso   1.000  Ag
  Ag14     1.0000 0.24986  0.51320  0.03339  Biso   1.000  Ag
  Ag15     1.0000 0.02980  0.18510  0.74983  Biso   1.000  Ag
  Ag16     1.0000 0.03549  0.28007  0.67836  Biso   1.000  Ag
  N49      1.0000 0.10890  0.22990  0.75010  Biso   1.000  N
  N50      1.0000 0.10850  0.26940  0.72420  Biso   1.000  N
  N51      1.0000 0.18360  0.27050  0.76770  Biso   1.000  N
  N52      1.0000 0.39310  0.25950  0.79570  Biso   1.000  N
  H356     1.0000 0.42160  0.27310  0.80980  Biso   1.000  H
  N53      1.0000 0.46120  0.73190  0.17400  Biso   1.000  N
  N54      1.0000 0.45530  0.69750  0.20390  Biso   1.000  N
  N55      1.0000 0.37690  0.69970  0.16350  Biso   1.000  N
  N56      1.0000 0.18210  0.75460  0.12470  Biso   1.000  N
  H357     1.0000 0.15170  0.74890  0.10780  Biso   1.000  H
  N57      1.0000 0.17080  0.47150  0.01720  Biso   1.000  N
  N58      1.0000 0.17500  0.44480  0.98020  Biso   1.000  N
  N59      1.0000 0.09010  0.43730  0.01070  Biso   1.000  N
  N60      1.0000 0.88070  0.42790  0.98030  Biso   1.000  N
  H358     1.0000 0.84890  0.41450  0.98950  Biso   1.000  H
  N61      1.0000 0.32680  0.51770  0.98620  Biso   1.000  N
  N62      1.0000 0.33050  0.49080  0.94810  Biso   1.000  N
  N63      1.0000 0.40310  0.54100  0.94700  Biso   1.000  N
  N64      1.0000 0.59440  0.59740  0.97970  Biso   1.000  N
  H359     1.0000 0.62210  0.61530  0.96990  Biso   1.000  H
  O37      1.0000 0.31790  0.36840  0.91040  Biso   1.000  O
  O38      1.0000 0.23610  0.39560  0.87970  Biso   1.000  O
  O39      1.0000 0.37230  0.20810  0.74160  Biso   1.000  O
  O40      1.0000 0.26990  0.56900  0.08820  Biso   1.000  O
  O41      1.0000 0.21190  0.60400  0.04120  Biso   1.000  O
  O42      1.0000 0.21980  0.80400  0.17240  Biso   1.000  O
  O43      1.0000 0.99960  0.34510  0.13830  Biso   1.000  O
  O44      1.0000 0.92580  0.31190  0.09850  Biso   1.000  O
  O45      1.0000 0.91480  0.48090  0.93090  Biso   1.000  O
  O46      1.0000 0.45900  0.63580  0.81080  Biso   1.000  O
  O47      1.0000 0.52860  0.68160  0.83980  Biso   1.000  O
  O48      1.0000 0.56870  0.54870  0.03550  Biso   1.000  O
  C346     1.0000 0.37770  0.58280  0.01830  Biso   1.000  C
  C347     1.0000 0.40870  0.56590  0.05960  Biso   1.000  C
  H360     1.0000 0.41370  0.59070  0.08120  Biso   1.000  H
  H361     1.0000 0.38610  0.54180  0.07380  Biso   1.000  H
  H362     1.0000 0.44660  0.55420  0.05080  Biso   1.000  H
  H363     1.0000 0.40010  0.60760  0.00440  Biso   1.000  H
  H364     1.0000 0.33950  0.59490  0.02730  Biso   1.000  H
  C348     1.0000 0.39760  0.74850  0.06720  Biso   1.000  C
  H365     1.0000 0.40080  0.71560  0.06860  Biso   1.000  H
  H366     1.0000 0.36060  0.75680  0.05350  Biso   1.000  H
  H367     1.0000 0.42920  0.76070  0.04890  Biso   1.000  H
  H368     1.0000 0.36410  0.78320  0.12120  Biso   1.000  H
  H369     1.0000 0.43190  0.79060  0.11530  Biso   1.000  H
  H370     1.0000 0.40920  0.62680  0.24170  Biso   1.000  H
  H371     1.0000 0.34590  0.64750  0.23600  Biso   1.000  H
  H372     1.0000 0.37110  0.61420  0.19830  Biso   1.000  H
  C349     1.0000 0.13250  0.83000  0.14570  Biso   1.000  C
  C350     1.0000 0.09100  0.82410  0.11380  Biso   1.000  C
  H373     1.0000 0.09510  0.80090  0.09180  Biso   1.000  H
  C351     1.0000 0.04270  0.85170  0.11300  Biso   1.000  C
  C352     1.0000 0.03800  0.88440  0.14530  Biso   1.000  C
  H374     1.0000 0.00470  0.90300  0.14580  Biso   1.000  H
  C353     1.0000 0.08020  0.89090  0.17690  Biso   1.000  C
  H375     1.0000 0.07670  0.91470  0.19820  Biso   1.000  H
  C354     1.0000 0.12750  0.86320  0.17780  Biso   1.000  C
  H376     1.0000 0.15630  0.86690  0.20040  Biso   1.000  H
  C355     1.0000 0.99840  0.84720  0.07510  Biso   1.000  C
  H377     1.0000 0.00900  0.82200  0.05540  Biso   1.000  H
  H378     1.0000 0.96020  0.84170  0.08820  Biso   1.000  H
  H379     1.0000 0.99760  0.87520  0.05730  Biso   1.000  H
  C356     1.0000 0.37210  0.63000  0.00200  Biso   1.000  C
  H380     1.0000 0.37840  0.65080  0.02740  Biso   1.000  H
  H381     1.0000 0.40090  0.63570  0.97840  Biso   1.000  H
  H382     1.0000 0.33340  0.63470  0.98960  Biso   1.000  H
  H383     1.0000 0.34920  0.57830  0.04290  Biso   1.000  H
  H384     1.0000 0.41650  0.57940  0.03190  Biso   1.000  H
  C357     1.0000 0.27630  0.63250  0.37980  Biso   1.000  C
  C358     1.0000 0.28090  0.66800  0.34590  Biso   1.000  C
  C359     1.0000 0.23160  0.68170  0.32240  Biso   1.000  C
  H385     1.0000 0.19520  0.66830  0.32850  Biso   1.000  H
  C360     1.0000 0.23650  0.71480  0.29020  Biso   1.000  C
  C361     1.0000 0.28710  0.73440  0.27880  Biso   1.000  C
  H386     1.0000 0.28860  0.75640  0.25550  Biso   1.000  H
  C362     1.0000 0.33670  0.72170  0.30190  Biso   1.000  C
  C363     1.0000 0.33360  0.68920  0.33570  Biso   1.000  C
  H387     1.0000 0.36730  0.68130  0.35210  Biso   1.000  H
  C364     1.0000 0.20300  0.84240  0.28470  Biso   1.000  C
  H388     1.0000 0.21450  0.86560  0.30660  Biso   1.000  H
  H389     1.0000 0.17720  0.85560  0.26200  Biso   1.000  H
  H390     1.0000 0.23740  0.83030  0.26970  Biso   1.000  H
  C365     1.0000 0.17130  0.80370  0.30980  Biso   1.000  C
  H391     1.0000 0.19680  0.79040  0.33310  Biso   1.000  H
  H392     1.0000 0.13630  0.81550  0.32500  Biso   1.000  H
  C366     1.0000 0.15490  0.76850  0.27520  Biso   1.000  C
  C367     1.0000 0.15640  0.70690  0.23390  Biso   1.000  C
  C368     1.0000 0.17100  0.66320  0.21650  Biso   1.000  C
  H393     1.0000 0.15640  0.63990  0.23700  Biso   1.000  H
  H394     1.0000 0.21300  0.66050  0.21400  Biso   1.000  H
  H395     1.0000 0.15360  0.65920  0.18650  Biso   1.000  H
  C369     1.0000 0.40700  0.77680  0.27090  Biso   1.000  C
  C370     1.0000 0.46300  0.79950  0.27940  Biso   1.000  C
  C371     1.0000 0.47640  0.83700  0.25450  Biso   1.000  C
  H396     1.0000 0.45280  0.84510  0.22940  Biso   1.000  H
  C372     1.0000 0.52590  0.86430  0.26590  Biso   1.000  C
  C373     1.0000 0.56050  0.84800  0.29800  Biso   1.000  C
  H397     1.0000 0.59510  0.86420  0.30390  Biso   1.000  H
  C374     1.0000 0.55030  0.80870  0.32390  Biso   1.000  C
  H398     1.0000 0.57540  0.79930  0.34750  Biso   1.000  H
  C375     1.0000 0.50090  0.78510  0.31220  Biso   1.000  C
  H399     1.0000 0.49290  0.75760  0.32750  Biso   1.000  H
  C376     1.0000 0.53800  0.90480  0.23540  Biso   1.000  C
  H400     1.0000 0.54070  0.93210  0.25390  Biso   1.000  H
  H401     1.0000 0.50660  0.90810  0.21340  Biso   1.000  H
  H402     1.0000 0.57450  0.90000  0.21930  Biso   1.000  H
  C377     1.0000 0.24600  0.39870  0.57380  Biso   1.000  C
  C378     1.0000 0.25620  0.35380  0.60000  Biso   1.000  C
  C379     1.0000 0.31220  0.34800  0.62170  Biso   1.000  C
  H403     1.0000 0.34080  0.37090  0.62110  Biso   1.000  H
  C380     1.0000 0.32130  0.30620  0.64380  Biso   1.000  C
  C381     1.0000 0.28130  0.27360  0.64590  Biso   1.000  C
  H404     1.0000 0.28930  0.24670  0.66210  Biso   1.000  H
  C382     1.0000 0.22620  0.27900  0.62360  Biso   1.000  C
  C383     1.0000 0.21840  0.32010  0.60140  Biso   1.000  C
  H405     1.0000 0.18290  0.32440  0.58590  Biso   1.000  H
  C384     1.0000 0.40090  0.23230  0.61450  Biso   1.000  C
  C385     1.0000 0.41340  0.38320  0.75870  Biso   1.000  C
  H406     1.0000 0.44590  0.36380  0.76720  Biso   1.000  H
  H407     1.0000 0.38750  0.38690  0.78470  Biso   1.000  H
  H408     1.0000 0.42790  0.41280  0.74930  Biso   1.000  H
  C386     1.0000 0.38080  0.36190  0.71990  Biso   1.000  C
  H409     1.0000 0.34280  0.35250  0.73180  Biso   1.000  H
  H410     1.0000 0.37350  0.38590  0.69730  Biso   1.000  H
  C387     1.0000 0.40500  0.32330  0.69550  Biso   1.000  C
  C388     1.0000 0.41200  0.26560  0.65050  Biso   1.000  C
  H411     1.0000 0.36210  0.23700  0.60220  Biso   1.000  H
  H412     1.0000 0.40370  0.20180  0.62710  Biso   1.000  H
  H413     1.0000 0.42940  0.23600  0.59030  Biso   1.000  H
  C389     1.0000 0.18010  0.20790  0.64690  Biso   1.000  C
  C390     1.0000 0.12640  0.18410  0.63650  Biso   1.000  C
  C391     1.0000 0.08730  0.19260  0.60170  Biso   1.000  C
  H414     1.0000 0.09140  0.21880  0.58360  Biso   1.000  H
  C392     1.0000 0.04180  0.16220  0.59340  Biso   1.000  C
  C393     1.0000 0.02970  0.12870  0.62520  Biso   1.000  C
  H415     1.0000 0.99490  0.11190  0.62330  Biso   1.000  H
  C394     1.0000 0.06870  0.11990  0.65970  Biso   1.000  C
  H416     1.0000 0.06310  0.09470  0.67900  Biso   1.000  H
  C395     1.0000 0.11640  0.14800  0.66600  Biso   1.000  C
  H417     1.0000 0.14220  0.14260  0.69040  Biso   1.000  H
  C396     1.0000 0.99900  0.17250  0.55580  Biso   1.000  C
  H418     1.0000 0.97830  0.20050  0.56290  Biso   1.000  H
  H419     1.0000 0.97140  0.14760  0.55310  Biso   1.000  H
  H420     1.0000 0.01980  0.17610  0.52710  Biso   1.000  H
  C397     1.0000 0.96540  0.65710  0.60310  Biso   1.000  C
  C398     1.0000 0.97260  0.62640  0.56600  Biso   1.000  C
  C399     1.0000 0.02780  0.60940  0.55590  Biso   1.000  C
  H421     1.0000 0.06050  0.61900  0.57270  Biso   1.000  H
  C400     1.0000 0.03350  0.57800  0.52050  Biso   1.000  C
  C401     1.0000 0.98680  0.56450  0.49460  Biso   1.000  C
  H422     1.0000 0.99160  0.54380  0.47040  Biso   1.000  H
  C402     1.0000 0.93200  0.58230  0.50530  Biso   1.000  C
  C403     1.0000 0.92590  0.61190  0.53960  Biso   1.000  C
  H423     1.0000 0.88860  0.62340  0.54620  Biso   1.000  H
  C404     1.0000 0.13550  0.47700  0.60090  Biso   1.000  C
  H424     1.0000 0.17260  0.49090  0.60850  Biso   1.000  H
  H425     1.0000 0.14190  0.45110  0.58080  Biso   1.000  H
  H426     1.0000 0.11640  0.46680  0.62870  Biso   1.000  H
  C405     1.0000 0.09870  0.51030  0.57780  Biso   1.000  C
  H427     1.0000 0.08890  0.53400  0.60020  Biso   1.000  H
  H428     1.0000 0.06220  0.49490  0.56970  Biso   1.000  H
  C406     1.0000 0.12110  0.53410  0.53500  Biso   1.000  C
  C407     1.0000 0.12560  0.57390  0.47420  Biso   1.000  C
  C408     1.0000 0.10960  0.60970  0.44070  Biso   1.000  C
  H429     1.0000 0.12180  0.63920  0.45220  Biso   1.000  H
  H430     1.0000 0.06770  0.60970  0.43630  Biso   1.000  H
  H431     1.0000 0.12880  0.60370  0.41180  Biso   1.000  H
  C409     1.0000 0.87560  0.54480  0.44500  Biso   1.000  C
  C410     1.0000 0.81920  0.55090  0.41870  Biso   1.000  C
  C411     1.0000 0.78090  0.58650  0.42670  Biso   1.000  C
  H432     1.0000 0.78880  0.60740  0.45030  Biso   1.000  H
  C412     1.0000 0.73150  0.59190  0.40080  Biso   1.000  C
  C413     1.0000 0.72240  0.56490  0.36720  Biso   1.000  C
  H433     1.0000 0.69010  0.57060  0.34820  Biso   1.000  H
  C414     1.0000 0.75600  0.52890  0.35760  Biso   1.000  C
  H434     1.0000 0.74670  0.50970  0.33290  Biso   1.000  H
  C415     1.0000 0.80810  0.51950  0.38600  Biso   1.000  C
  H435     1.0000 0.83160  0.49370  0.38170  Biso   1.000  H
  C416     1.0000 0.69590  0.63260  0.40950  Biso   1.000  C
  H436     1.0000 0.71100  0.64860  0.43610  Biso   1.000  H
  H437     1.0000 0.65590  0.62360  0.41510  Biso   1.000  H
  H438     1.0000 0.69750  0.65260  0.38300  Biso   1.000  H
  C417     1.0000 0.49560  0.35360  0.34040  Biso   1.000  C
  C418     1.0000 0.49740  0.38200  0.38490  Biso   1.000  C
  C419     1.0000 0.44880  0.40950  0.39350  Biso   1.000  C
  H439     1.0000 0.41670  0.41050  0.37360  Biso   1.000  H
  C420     1.0000 0.45110  0.43470  0.43270  Biso   1.000  C
  C421     1.0000 0.49810  0.43520  0.46110  Biso   1.000  C
  H440     1.0000 0.50000  0.45530  0.48610  Biso   1.000  H
  C422     1.0000 0.54440  0.40390  0.45160  Biso   1.000  C
  C423     1.0000 0.54120  0.38060  0.41100  Biso   1.000  C
  H441     1.0000 0.57330  0.36280  0.40210  Biso   1.000  H
  C424     1.0000 0.36990  0.45330  0.48550  Biso   1.000  C
  C425     1.0000 0.37410  0.49710  0.42310  Biso   1.000  C
  C426     1.0000 0.39470  0.51570  0.38170  Biso   1.000  C
  H442     1.0000 0.38360  0.49610  0.35650  Biso   1.000  H
  H443     1.0000 0.43690  0.51820  0.38290  Biso   1.000  H
  H444     1.0000 0.37790  0.54570  0.37730  Biso   1.000  H
  C427     1.0000 0.60580  0.42400  0.51840  Biso   1.000  C
  C428     1.0000 0.66020  0.41350  0.54040  Biso   1.000  C
  C429     1.0000 0.69760  0.38170  0.52880  Biso   1.000  C
  H445     1.0000 0.69070  0.36490  0.50200  Biso   1.000  H
  C430     1.0000 0.74770  0.37170  0.55500  Biso   1.000  C
  C431     1.0000 0.75670  0.40020  0.59080  Biso   1.000  C
  H446     1.0000 0.79010  0.39470  0.60870  Biso   1.000  H
  C432     1.0000 0.72310  0.43520  0.60330  Biso   1.000  C
  H447     1.0000 0.73330  0.45520  0.62720  Biso   1.000  H
  C433     1.0000 0.67300  0.43970  0.57890  Biso   1.000  C
  H448     1.0000 0.64560  0.46160  0.58850  Biso   1.000  H
  C434     1.0000 0.78950  0.34160  0.54120  Biso   1.000  C
  H449     1.0000 0.79740  0.34610  0.50890  Biso   1.000  H
  H450     1.0000 0.77590  0.31070  0.54620  Biso   1.000  H
  H451     1.0000 0.82490  0.34670  0.55860  Biso   1.000  H
  Ag17     1.0000 0.25692  0.55475  0.43797  Biso   1.000  Ag
  Ag18     1.0000 0.24986  0.48680  0.53339  Biso   1.000  Ag
  Ag19     1.0000 0.02980  0.81490  0.24983  Biso   1.000  Ag
  Ag20     1.0000 0.03549  0.71993  0.17836  Biso   1.000  Ag
  N65      1.0000 0.10890  0.77010  0.25010  Biso   1.000  N
  N66      1.0000 0.10850  0.73060  0.22420  Biso   1.000  N
  N67      1.0000 0.18360  0.72950  0.26770  Biso   1.000  N
  N68      1.0000 0.39310  0.74050  0.29570  Biso   1.000  N
  H452     1.0000 0.42160  0.72690  0.30980  Biso   1.000  H
  N69      1.0000 0.46120  0.26810  0.67400  Biso   1.000  N
  N70      1.0000 0.45530  0.30250  0.70390  Biso   1.000  N
  N71      1.0000 0.37690  0.30030  0.66350  Biso   1.000  N
  N72      1.0000 0.18210  0.24540  0.62470  Biso   1.000  N
  H453     1.0000 0.15170  0.25110  0.60780  Biso   1.000  H
  N73      1.0000 0.17080  0.52850  0.51720  Biso   1.000  N
  N74      1.0000 0.17500  0.55520  0.48020  Biso   1.000  N
  N75      1.0000 0.09010  0.56270  0.51070  Biso   1.000  N
  N76      1.0000 0.88070  0.57210  0.48030  Biso   1.000  N
  H454     1.0000 0.84890  0.58550  0.48950  Biso   1.000  H
  N77      1.0000 0.32680  0.48230  0.48620  Biso   1.000  N
  N78      1.0000 0.33050  0.50920  0.44810  Biso   1.000  N
  N79      1.0000 0.40310  0.45900  0.44700  Biso   1.000  N
  N80      1.0000 0.59440  0.40260  0.47970  Biso   1.000  N
  H455     1.0000 0.62210  0.38470  0.46990  Biso   1.000  H
  O49      1.0000 0.31790  0.63160  0.41040  Biso   1.000  O
  O50      1.0000 0.23610  0.60440  0.37970  Biso   1.000  O
  O51      1.0000 0.37230  0.79190  0.24160  Biso   1.000  O
  O52      1.0000 0.26990  0.43100  0.58820  Biso   1.000  O
  O53      1.0000 0.21190  0.39600  0.54120  Biso   1.000  O
  O54      1.0000 0.21980  0.19600  0.67240  Biso   1.000  O
  O55      1.0000 0.99960  0.65490  0.63830  Biso   1.000  O
  O56      1.0000 0.92580  0.68810  0.59850  Biso   1.000  O
  O57      1.0000 0.91480  0.51910  0.43090  Biso   1.000  O
  O58      1.0000 0.45900  0.36420  0.31080  Biso   1.000  O
  O59      1.0000 0.52860  0.31840  0.33980  Biso   1.000  O
  O60      1.0000 0.56870  0.45130  0.53550  Biso   1.000  O
  C435     1.0000 0.37770  0.41720  0.51830  Biso   1.000  C
  C436     1.0000 0.40870  0.43410  0.55960  Biso   1.000  C
  H456     1.0000 0.41370  0.40930  0.58120  Biso   1.000  H
  H457     1.0000 0.38610  0.45820  0.57380  Biso   1.000  H
  H458     1.0000 0.44660  0.44580  0.55080  Biso   1.000  H
  H459     1.0000 0.40010  0.39240  0.50440  Biso   1.000  H
  H460     1.0000 0.33950  0.40510  0.52730  Biso   1.000  H
  C437     1.0000 0.39760  0.25150  0.56720  Biso   1.000  C
  H461     1.0000 0.40080  0.28440  0.56860  Biso   1.000  H
  H462     1.0000 0.36060  0.24320  0.55350  Biso   1.000  H
  H463     1.0000 0.42920  0.23930  0.54890  Biso   1.000  H
  H464     1.0000 0.36410  0.21680  0.62120  Biso   1.000  H
  H465     1.0000 0.43190  0.20940  0.61530  Biso   1.000  H
  H466     1.0000 0.40920  0.37320  0.74170  Biso   1.000  H
  H467     1.0000 0.34590  0.35250  0.73600  Biso   1.000  H
  H468     1.0000 0.37110  0.38580  0.69830  Biso   1.000  H
  C438     1.0000 0.13250  0.17000  0.64570  Biso   1.000  C
  C439     1.0000 0.09100  0.17590  0.61380  Biso   1.000  C
  H469     1.0000 0.09510  0.19910  0.59180  Biso   1.000  H
  C440     1.0000 0.04270  0.14830  0.61300  Biso   1.000  C
  C441     1.0000 0.03800  0.11560  0.64530  Biso   1.000  C
  H470     1.0000 0.00470  0.09700  0.64580  Biso   1.000  H
  C442     1.0000 0.08020  0.10910  0.67690  Biso   1.000  C
  H471     1.0000 0.07670  0.08530  0.69820  Biso   1.000  H
  C443     1.0000 0.12750  0.13680  0.67780  Biso   1.000  C
  H472     1.0000 0.15630  0.13310  0.70040  Biso   1.000  H
  C444     1.0000 0.99840  0.15280  0.57510  Biso   1.000  C
  H473     1.0000 0.00900  0.17800  0.55540  Biso   1.000  H
  H474     1.0000 0.96020  0.15830  0.58820  Biso   1.000  H
  H475     1.0000 0.99760  0.12480  0.55730  Biso   1.000  H
  C445     1.0000 0.37210  0.37000  0.50200  Biso   1.000  C
  H476     1.0000 0.37840  0.34920  0.52740  Biso   1.000  H
  H477     1.0000 0.40090  0.36430  0.47840  Biso   1.000  H
  H478     1.0000 0.33340  0.36530  0.48960  Biso   1.000  H
  H479     1.0000 0.34920  0.42170  0.54290  Biso   1.000  H
  H480     1.0000 0.41650  0.42060  0.53190  Biso   1.000  H
  C446     1.0000 0.77630  0.13250  0.87980  Biso   1.000  C
  C447     1.0000 0.78090  0.16800  0.84590  Biso   1.000  C
  C448     1.0000 0.73160  0.18170  0.82240  Biso   1.000  C
  H481     1.0000 0.69520  0.16830  0.82850  Biso   1.000  H
  C449     1.0000 0.73650  0.21480  0.79020  Biso   1.000  C
  C450     1.0000 0.78710  0.23440  0.77880  Biso   1.000  C
  H482     1.0000 0.78860  0.25640  0.75550  Biso   1.000  H
  C451     1.0000 0.83670  0.22170  0.80190  Biso   1.000  C
  C452     1.0000 0.83360  0.18920  0.83570  Biso   1.000  C
  H483     1.0000 0.86730  0.18130  0.85210  Biso   1.000  H
  C453     1.0000 0.70300  0.34240  0.78470  Biso   1.000  C
  H484     1.0000 0.71450  0.36560  0.80660  Biso   1.000  H
  H485     1.0000 0.67720  0.35560  0.76200  Biso   1.000  H
  H486     1.0000 0.73740  0.33030  0.76970  Biso   1.000  H
  C454     1.0000 0.67130  0.30370  0.80980  Biso   1.000  C
  H487     1.0000 0.69680  0.29040  0.83310  Biso   1.000  H
  H488     1.0000 0.63630  0.31550  0.82500  Biso   1.000  H
  C455     1.0000 0.65490  0.26850  0.77520  Biso   1.000  C
  C456     1.0000 0.65640  0.20690  0.73390  Biso   1.000  C
  C457     1.0000 0.67100  0.16320  0.71650  Biso   1.000  C
  H489     1.0000 0.65640  0.13990  0.73700  Biso   1.000  H
  H490     1.0000 0.71300  0.16050  0.71400  Biso   1.000  H
  H491     1.0000 0.65360  0.15920  0.68650  Biso   1.000  H
  C458     1.0000 0.90700  0.27680  0.77090  Biso   1.000  C
  C459     1.0000 0.96300  0.29950  0.77940  Biso   1.000  C
  C460     1.0000 0.97640  0.33700  0.75450  Biso   1.000  C
  H492     1.0000 0.95280  0.34510  0.72940  Biso   1.000  H
  C461     1.0000 0.02590  0.36430  0.76590  Biso   1.000  C
  C462     1.0000 0.06050  0.34800  0.79800  Biso   1.000  C
  H493     1.0000 0.09510  0.36420  0.80390  Biso   1.000  H
  C463     1.0000 0.05030  0.30870  0.82390  Biso   1.000  C
  H494     1.0000 0.07540  0.29930  0.84750  Biso   1.000  H
  C464     1.0000 0.00090  0.28510  0.81220  Biso   1.000  C
  H495     1.0000 0.99290  0.25760  0.82750  Biso   1.000  H
  C465     1.0000 0.03800  0.40480  0.73540  Biso   1.000  C
  H496     1.0000 0.04070  0.43210  0.75390  Biso   1.000  H
  H497     1.0000 0.00660  0.40810  0.71340  Biso   1.000  H
  H498     1.0000 0.07450  0.40000  0.71930  Biso   1.000  H
  C466     1.0000 0.74600  0.89870  0.07380  Biso   1.000  C
  C467     1.0000 0.75620  0.85380  0.10000  Biso   1.000  C
  C468     1.0000 0.81220  0.84800  0.12170  Biso   1.000  C
  H499     1.0000 0.84080  0.87090  0.12110  Biso   1.000  H
  C469     1.0000 0.82130  0.80620  0.14380  Biso   1.000  C
  C470     1.0000 0.78130  0.77360  0.14590  Biso   1.000  C
  H500     1.0000 0.78930  0.74670  0.16210  Biso   1.000  H
  C471     1.0000 0.72620  0.77900  0.12360  Biso   1.000  C
  C472     1.0000 0.71840  0.82010  0.10140  Biso   1.000  C
  H501     1.0000 0.68290  0.82440  0.08590  Biso   1.000  H
  C473     1.0000 0.90090  0.73230  0.11450  Biso   1.000  C
  C474     1.0000 0.91340  0.88320  0.25870  Biso   1.000  C
  H502     1.0000 0.94590  0.86380  0.26720  Biso   1.000  H
  H503     1.0000 0.88750  0.88690  0.28470  Biso   1.000  H
  H504     1.0000 0.92790  0.91280  0.24930  Biso   1.000  H
  C475     1.0000 0.88080  0.86190  0.21990  Biso   1.000  C
  H505     1.0000 0.84280  0.85250  0.23180  Biso   1.000  H
  H506     1.0000 0.87350  0.88590  0.19730  Biso   1.000  H
  C476     1.0000 0.90500  0.82330  0.19550  Biso   1.000  C
  C477     1.0000 0.91200  0.76560  0.15050  Biso   1.000  C
  H507     1.0000 0.86210  0.73700  0.10220  Biso   1.000  H
  H508     1.0000 0.90370  0.70180  0.12710  Biso   1.000  H
  H509     1.0000 0.92940  0.73600  0.09030  Biso   1.000  H
  C478     1.0000 0.68010  0.70790  0.14690  Biso   1.000  C
  C479     1.0000 0.62640  0.68410  0.13650  Biso   1.000  C
  C480     1.0000 0.58730  0.69260  0.10170  Biso   1.000  C
  H510     1.0000 0.59140  0.71880  0.08360  Biso   1.000  H
  C481     1.0000 0.54180  0.66220  0.09340  Biso   1.000  C
  C482     1.0000 0.52970  0.62870  0.12520  Biso   1.000  C
  H511     1.0000 0.49490  0.61190  0.12330  Biso   1.000  H
  C483     1.0000 0.56870  0.61990  0.15970  Biso   1.000  C
  H512     1.0000 0.56310  0.59470  0.17900  Biso   1.000  H
  C484     1.0000 0.61640  0.64800  0.16600  Biso   1.000  C
  H513     1.0000 0.64220  0.64260  0.19040  Biso   1.000  H
  C485     1.0000 0.49900  0.67250  0.05580  Biso   1.000  C
  H514     1.0000 0.47830  0.70050  0.06290  Biso   1.000  H
  H515     1.0000 0.47140  0.64760  0.05310  Biso   1.000  H
  H516     1.0000 0.51980  0.67610  0.02710  Biso   1.000  H
  C486     1.0000 0.46540  0.15710  0.10310  Biso   1.000  C
  C487     1.0000 0.47260  0.12640  0.06600  Biso   1.000  C
  C488     1.0000 0.52780  0.10940  0.05590  Biso   1.000  C
  H517     1.0000 0.56050  0.11900  0.07270  Biso   1.000  H
  C489     1.0000 0.53350  0.07800  0.02050  Biso   1.000  C
  C490     1.0000 0.48680  0.06450  0.99460  Biso   1.000  C
  H518     1.0000 0.49160  0.04380  0.97040  Biso   1.000  H
  C491     1.0000 0.43200  0.08230  0.00530  Biso   1.000  C
  C492     1.0000 0.42590  0.11190  0.03960  Biso   1.000  C
  H519     1.0000 0.38860  0.12340  0.04620  Biso   1.000  H
  C493     1.0000 0.63550  0.97700  0.10090  Biso   1.000  C
  H520     1.0000 0.67260  0.99090  0.10850  Biso   1.000  H
  H521     1.0000 0.64190  0.95110  0.08080  Biso   1.000  H
  H522     1.0000 0.61640  0.96680  0.12870  Biso   1.000  H
  C494     1.0000 0.59870  0.01030  0.07780  Biso   1.000  C
  H523     1.0000 0.58890  0.03400  0.10020  Biso   1.000  H
  H524     1.0000 0.56220  0.99490  0.06970  Biso   1.000  H
  C495     1.0000 0.62110  0.03410  0.03500  Biso   1.000  C
  C496     1.0000 0.62560  0.07390  0.97420  Biso   1.000  C
  C497     1.0000 0.60960  0.10970  0.94070  Biso   1.000  C
  H525     1.0000 0.62180  0.13920  0.95220  Biso   1.000  H
  H526     1.0000 0.56770  0.10970  0.93630  Biso   1.000  H
  H527     1.0000 0.62880  0.10370  0.91180  Biso   1.000  H
  C498     1.0000 0.37560  0.04480  0.94500  Biso   1.000  C
  C499     1.0000 0.31920  0.05090  0.91870  Biso   1.000  C
  C500     1.0000 0.28090  0.08650  0.92670  Biso   1.000  C
  H528     1.0000 0.28880  0.10740  0.95030  Biso   1.000  H
  C501     1.0000 0.23150  0.09190  0.90080  Biso   1.000  C
  C502     1.0000 0.22240  0.06490  0.86720  Biso   1.000  C
  H529     1.0000 0.19010  0.07060  0.84820  Biso   1.000  H
  C503     1.0000 0.25600  0.02890  0.85760  Biso   1.000  C
  H530     1.0000 0.24670  0.00970  0.83290  Biso   1.000  H
  C504     1.0000 0.30810  0.01950  0.88600  Biso   1.000  C
  H531     1.0000 0.33160  0.99370  0.88170  Biso   1.000  H
  C505     1.0000 0.19590  0.13260  0.90950  Biso   1.000  C
  H532     1.0000 0.21100  0.14860  0.93610  Biso   1.000  H
  H533     1.0000 0.15590  0.12360  0.91510  Biso   1.000  H
  H534     1.0000 0.19750  0.15260  0.88300  Biso   1.000  H
  C506     1.0000 0.99560  0.85360  0.84040  Biso   1.000  C
  C507     1.0000 0.99740  0.88200  0.88490  Biso   1.000  C
  C508     1.0000 0.94880  0.90950  0.89350  Biso   1.000  C
  H535     1.0000 0.91670  0.91050  0.87360  Biso   1.000  H
  C509     1.0000 0.95110  0.93470  0.93270  Biso   1.000  C
  C510     1.0000 0.99810  0.93520  0.96110  Biso   1.000  C
  H536     1.0000 0.00000  0.95530  0.98610  Biso   1.000  H
  C511     1.0000 0.04440  0.90390  0.95160  Biso   1.000  C
  C512     1.0000 0.04120  0.88060  0.91100  Biso   1.000  C
  H537     1.0000 0.07330  0.86280  0.90210  Biso   1.000  H
  C513     1.0000 0.86990  0.95330  0.98550  Biso   1.000  C
  C514     1.0000 0.87410  0.99710  0.92310  Biso   1.000  C
  C515     1.0000 0.89470  0.01570  0.88170  Biso   1.000  C
  H538     1.0000 0.88360  0.99610  0.85650  Biso   1.000  H
  H539     1.0000 0.93690  0.01820  0.88290  Biso   1.000  H
  H540     1.0000 0.87790  0.04570  0.87730  Biso   1.000  H
  C516     1.0000 0.10580  0.92400  0.01840  Biso   1.000  C
  C517     1.0000 0.16020  0.91350  0.04040  Biso   1.000  C
  C518     1.0000 0.19760  0.88170  0.02880  Biso   1.000  C
  H541     1.0000 0.19070  0.86490  0.00200  Biso   1.000  H
  C519     1.0000 0.24770  0.87170  0.05500  Biso   1.000  C
  C520     1.0000 0.25670  0.90020  0.09080  Biso   1.000  C
  H542     1.0000 0.29010  0.89470  0.10870  Biso   1.000  H
  C521     1.0000 0.22310  0.93520  0.10330  Biso   1.000  C
  H543     1.0000 0.23330  0.95520  0.12720  Biso   1.000  H
  C522     1.0000 0.17300  0.93970  0.07890  Biso   1.000  C
  H544     1.0000 0.14560  0.96160  0.08850  Biso   1.000  H
  C523     1.0000 0.28950  0.84160  0.04120  Biso   1.000  C
  H545     1.0000 0.29740  0.84610  0.00890  Biso   1.000  H
  H546     1.0000 0.27590  0.81070  0.04620  Biso   1.000  H
  H547     1.0000 0.32490  0.84670  0.05860  Biso   1.000  H
  Ag21     1.0000 0.75692  0.05475  0.93797  Biso   1.000  Ag
  Ag22     1.0000 0.74986  0.98680  0.03339  Biso   1.000  Ag
  Ag23     1.0000 0.52980  0.31490  0.74983  Biso   1.000  Ag
  Ag24     1.0000 0.53549  0.21993  0.67836  Biso   1.000  Ag
  N81      1.0000 0.60890  0.27010  0.75010  Biso   1.000  N
  N82      1.0000 0.60850  0.23060  0.72420  Biso   1.000  N
  N83      1.0000 0.68360  0.22950  0.76770  Biso   1.000  N
  N84      1.0000 0.89310  0.24050  0.79570  Biso   1.000  N
  H548     1.0000 0.92160  0.22690  0.80980  Biso   1.000  H
  N85      1.0000 0.96120  0.76810  0.17400  Biso   1.000  N
  N86      1.0000 0.95530  0.80250  0.20390  Biso   1.000  N
  N87      1.0000 0.87690  0.80030  0.16350  Biso   1.000  N
  N88      1.0000 0.68210  0.74540  0.12470  Biso   1.000  N
  H549     1.0000 0.65170  0.75110  0.10780  Biso   1.000  H
  N89      1.0000 0.67080  0.02850  0.01720  Biso   1.000  N
  N90      1.0000 0.67500  0.05520  0.98020  Biso   1.000  N
  N91      1.0000 0.59010  0.06270  0.01070  Biso   1.000  N
  N92      1.0000 0.38070  0.07210  0.98030  Biso   1.000  N
  H550     1.0000 0.34890  0.08550  0.98950  Biso   1.000  H
  N93      1.0000 0.82680  0.98230  0.98620  Biso   1.000  N
  N94      1.0000 0.83050  0.00920  0.94810  Biso   1.000  N
  N95      1.0000 0.90310  0.95900  0.94700  Biso   1.000  N
  N96      1.0000 0.09440  0.90260  0.97970  Biso   1.000  N
  H551     1.0000 0.12210  0.88470  0.96990  Biso   1.000  H
  O61      1.0000 0.81790  0.13160  0.91040  Biso   1.000  O
  O62      1.0000 0.73610  0.10440  0.87970  Biso   1.000  O
  O63      1.0000 0.87230  0.29190  0.74160  Biso   1.000  O
  O64      1.0000 0.76990  0.93100  0.08820  Biso   1.000  O
  O65      1.0000 0.71190  0.89600  0.04120  Biso   1.000  O
  O66      1.0000 0.71980  0.69600  0.17240  Biso   1.000  O
  O67      1.0000 0.49960  0.15490  0.13830  Biso   1.000  O
  O68      1.0000 0.42580  0.18810  0.09850  Biso   1.000  O
  O69      1.0000 0.41480  0.01910  0.93090  Biso   1.000  O
  O70      1.0000 0.95900  0.86420  0.81080  Biso   1.000  O
  O71      1.0000 0.02860  0.81840  0.83980  Biso   1.000  O
  O72      1.0000 0.06870  0.95130  0.03550  Biso   1.000  O
  C524     1.0000 0.87770  0.91720  0.01830  Biso   1.000  C
  C525     1.0000 0.90870  0.93410  0.05960  Biso   1.000  C
  H552     1.0000 0.91370  0.90930  0.08120  Biso   1.000  H
  H553     1.0000 0.88610  0.95820  0.07380  Biso   1.000  H
  H554     1.0000 0.94660  0.94580  0.05080  Biso   1.000  H
  H555     1.0000 0.90010  0.89240  0.00440  Biso   1.000  H
  H556     1.0000 0.83950  0.90510  0.02730  Biso   1.000  H
  C526     1.0000 0.89760  0.75150  0.06720  Biso   1.000  C
  H557     1.0000 0.90080  0.78440  0.06860  Biso   1.000  H
  H558     1.0000 0.86060  0.74320  0.05350  Biso   1.000  H
  H559     1.0000 0.92920  0.73930  0.04890  Biso   1.000  H
  H560     1.0000 0.86410  0.71680  0.12120  Biso   1.000  H
  H561     1.0000 0.93190  0.70940  0.11530  Biso   1.000  H
  H562     1.0000 0.90920  0.87320  0.24170  Biso   1.000  H
  H563     1.0000 0.84590  0.85250  0.23600  Biso   1.000  H
  H564     1.0000 0.87110  0.88580  0.19830  Biso   1.000  H
  C527     1.0000 0.63250  0.67000  0.14570  Biso   1.000  C
  C528     1.0000 0.59100  0.67590  0.11380  Biso   1.000  C
  H565     1.0000 0.59510  0.69910  0.09180  Biso   1.000  H
  C529     1.0000 0.54270  0.64830  0.11300  Biso   1.000  C
  C530     1.0000 0.53800  0.61560  0.14530  Biso   1.000  C
  H566     1.0000 0.50470  0.59700  0.14580  Biso   1.000  H
  C531     1.0000 0.58020  0.60910  0.17690  Biso   1.000  C
  H567     1.0000 0.57670  0.58530  0.19820  Biso   1.000  H
  C532     1.0000 0.62750  0.63680  0.17780  Biso   1.000  C
  H568     1.0000 0.65630  0.63310  0.20040  Biso   1.000  H
  C533     1.0000 0.49840  0.65280  0.07510  Biso   1.000  C
  H569     1.0000 0.50900  0.67800  0.05540  Biso   1.000  H
  H570     1.0000 0.46020  0.65830  0.08820  Biso   1.000  H
  H571     1.0000 0.49760  0.62480  0.05730  Biso   1.000  H
  C534     1.0000 0.87210  0.87000  0.00200  Biso   1.000  C
  H572     1.0000 0.87840  0.84920  0.02740  Biso   1.000  H
  H573     1.0000 0.90090  0.86430  0.97840  Biso   1.000  H
  H574     1.0000 0.83340  0.86530  0.98960  Biso   1.000  H
  H575     1.0000 0.84920  0.92170  0.04290  Biso   1.000  H
  H576     1.0000 0.91650  0.92060  0.03190  Biso   1.000  H
  C535     1.0000 0.22370  0.13250  0.37980  Biso   1.000  C
  C536     1.0000 0.21910  0.16800  0.34590  Biso   1.000  C
  C537     1.0000 0.26840  0.18170  0.32240  Biso   1.000  C
  H577     1.0000 0.30480  0.16830  0.32850  Biso   1.000  H
  C538     1.0000 0.26350  0.21480  0.29020  Biso   1.000  C
  C539     1.0000 0.21290  0.23440  0.27880  Biso   1.000  C
  H578     1.0000 0.21140  0.25640  0.25550  Biso   1.000  H
  C540     1.0000 0.16330  0.22170  0.30190  Biso   1.000  C
  C541     1.0000 0.16640  0.18920  0.33570  Biso   1.000  C
  H579     1.0000 0.13270  0.18130  0.35210  Biso   1.000  H
  C542     1.0000 0.29700  0.34240  0.28470  Biso   1.000  C
  H580     1.0000 0.28550  0.36560  0.30660  Biso   1.000  H
  H581     1.0000 0.32280  0.35560  0.26200  Biso   1.000  H
  H582     1.0000 0.26260  0.33030  0.26970  Biso   1.000  H
  C543     1.0000 0.32870  0.30370  0.30980  Biso   1.000  C
  H583     1.0000 0.30320  0.29040  0.33310  Biso   1.000  H
  H584     1.0000 0.36370  0.31550  0.32500  Biso   1.000  H
  C544     1.0000 0.34510  0.26850  0.27520  Biso   1.000  C
  C545     1.0000 0.34360  0.20690  0.23390  Biso   1.000  C
  C546     1.0000 0.32900  0.16320  0.21650  Biso   1.000  C
  H585     1.0000 0.34360  0.13990  0.23700  Biso   1.000  H
  H586     1.0000 0.28700  0.16050  0.21400  Biso   1.000  H
  H587     1.0000 0.34640  0.15920  0.18650  Biso   1.000  H
  C547     1.0000 0.09300  0.27680  0.27090  Biso   1.000  C
  C548     1.0000 0.03700  0.29950  0.27940  Biso   1.000  C
  C549     1.0000 0.02360  0.33700  0.25450  Biso   1.000  C
  H588     1.0000 0.04720  0.34510  0.22940  Biso   1.000  H
  C550     1.0000 0.97410  0.36430  0.26590  Biso   1.000  C
  C551     1.0000 0.93950  0.34800  0.29800  Biso   1.000  C
  H589     1.0000 0.90490  0.36420  0.30390  Biso   1.000  H
  C552     1.0000 0.94970  0.30870  0.32390  Biso   1.000  C
  H590     1.0000 0.92460  0.29930  0.34750  Biso   1.000  H
  C553     1.0000 0.99910  0.28510  0.31220  Biso   1.000  C
  H591     1.0000 0.00710  0.25760  0.32750  Biso   1.000  H
  C554     1.0000 0.96200  0.40480  0.23540  Biso   1.000  C
  H592     1.0000 0.95930  0.43210  0.25390  Biso   1.000  H
  H593     1.0000 0.99340  0.40810  0.21340  Biso   1.000  H
  H594     1.0000 0.92550  0.40000  0.21930  Biso   1.000  H
  C555     1.0000 0.25400  0.89870  0.57380  Biso   1.000  C
  C556     1.0000 0.24380  0.85380  0.60000  Biso   1.000  C
  C557     1.0000 0.18780  0.84800  0.62170  Biso   1.000  C
  H595     1.0000 0.15920  0.87090  0.62110  Biso   1.000  H
  C558     1.0000 0.17870  0.80620  0.64380  Biso   1.000  C
  C559     1.0000 0.21870  0.77360  0.64590  Biso   1.000  C
  H596     1.0000 0.21070  0.74670  0.66210  Biso   1.000  H
  C560     1.0000 0.27380  0.77900  0.62360  Biso   1.000  C
  C561     1.0000 0.28160  0.82010  0.60140  Biso   1.000  C
  H597     1.0000 0.31710  0.82440  0.58590  Biso   1.000  H
  C562     1.0000 0.09910  0.73230  0.61450  Biso   1.000  C
  C563     1.0000 0.08660  0.88320  0.75870  Biso   1.000  C
  H598     1.0000 0.05410  0.86380  0.76720  Biso   1.000  H
  H599     1.0000 0.11250  0.88690  0.78470  Biso   1.000  H
  H600     1.0000 0.07210  0.91280  0.74930  Biso   1.000  H
  C564     1.0000 0.11920  0.86190  0.71990  Biso   1.000  C
  H601     1.0000 0.15720  0.85250  0.73180  Biso   1.000  H
  H602     1.0000 0.12650  0.88590  0.69730  Biso   1.000  H
  C565     1.0000 0.09500  0.82330  0.69550  Biso   1.000  C
  C566     1.0000 0.08800  0.76560  0.65050  Biso   1.000  C
  H603     1.0000 0.13790  0.73700  0.60220  Biso   1.000  H
  H604     1.0000 0.09630  0.70180  0.62710  Biso   1.000  H
  H605     1.0000 0.07060  0.73600  0.59030  Biso   1.000  H
  C567     1.0000 0.31990  0.70790  0.64690  Biso   1.000  C
  C568     1.0000 0.37360  0.68410  0.63650  Biso   1.000  C
  C569     1.0000 0.41270  0.69260  0.60170  Biso   1.000  C
  H606     1.0000 0.40860  0.71880  0.58360  Biso   1.000  H
  C570     1.0000 0.45820  0.66220  0.59340  Biso   1.000  C
  C571     1.0000 0.47030  0.62870  0.62520  Biso   1.000  C
  H607     1.0000 0.50510  0.61190  0.62330  Biso   1.000  H
  C572     1.0000 0.43130  0.61990  0.65970  Biso   1.000  C
  H608     1.0000 0.43690  0.59470  0.67900  Biso   1.000  H
  C573     1.0000 0.38360  0.64800  0.66600  Biso   1.000  C
  H609     1.0000 0.35780  0.64260  0.69040  Biso   1.000  H
  C574     1.0000 0.50100  0.67250  0.55580  Biso   1.000  C
  H610     1.0000 0.52170  0.70050  0.56290  Biso   1.000  H
  H611     1.0000 0.52860  0.64760  0.55310  Biso   1.000  H
  H612     1.0000 0.48020  0.67610  0.52710  Biso   1.000  H
  C575     1.0000 0.53460  0.15710  0.60310  Biso   1.000  C
  C576     1.0000 0.52740  0.12640  0.56600  Biso   1.000  C
  C577     1.0000 0.47220  0.10940  0.55590  Biso   1.000  C
  H613     1.0000 0.43950  0.11900  0.57270  Biso   1.000  H
  C578     1.0000 0.46650  0.07800  0.52050  Biso   1.000  C
  C579     1.0000 0.51320  0.06450  0.49460  Biso   1.000  C
  H614     1.0000 0.50840  0.04380  0.47040  Biso   1.000  H
  C580     1.0000 0.56800  0.08230  0.50530  Biso   1.000  C
  C581     1.0000 0.57410  0.11190  0.53960  Biso   1.000  C
  H615     1.0000 0.61140  0.12340  0.54620  Biso   1.000  H
  C582     1.0000 0.36450  0.97700  0.60090  Biso   1.000  C
  H616     1.0000 0.32740  0.99090  0.60850  Biso   1.000  H
  H617     1.0000 0.35810  0.95110  0.58080  Biso   1.000  H
  H618     1.0000 0.38360  0.96680  0.62870  Biso   1.000  H
  C583     1.0000 0.40130  0.01030  0.57780  Biso   1.000  C
  H619     1.0000 0.41110  0.03400  0.60020  Biso   1.000  H
  H620     1.0000 0.43780  0.99490  0.56970  Biso   1.000  H
  C584     1.0000 0.37890  0.03410  0.53500  Biso   1.000  C
  C585     1.0000 0.37440  0.07390  0.47420  Biso   1.000  C
  C586     1.0000 0.39040  0.10970  0.44070  Biso   1.000  C
  H621     1.0000 0.37820  0.13920  0.45220  Biso   1.000  H
  H622     1.0000 0.43230  0.10970  0.43630  Biso   1.000  H
  H623     1.0000 0.37120  0.10370  0.41180  Biso   1.000  H
  C587     1.0000 0.62440  0.04480  0.44500  Biso   1.000  C
  C588     1.0000 0.68080  0.05090  0.41870  Biso   1.000  C
  C589     1.0000 0.71910  0.08650  0.42670  Biso   1.000  C
  H624     1.0000 0.71120  0.10740  0.45030  Biso   1.000  H
  C590     1.0000 0.76850  0.09190  0.40080  Biso   1.000  C
  C591     1.0000 0.77760  0.06490  0.36720  Biso   1.000  C
  H625     1.0000 0.80990  0.07060  0.34820  Biso   1.000  H
  C592     1.0000 0.74400  0.02890  0.35760  Biso   1.000  C
  H626     1.0000 0.75330  0.00970  0.33290  Biso   1.000  H
  C593     1.0000 0.69190  0.01950  0.38600  Biso   1.000  C
  H627     1.0000 0.66840  0.99370  0.38170  Biso   1.000  H
  C594     1.0000 0.80410  0.13260  0.40950  Biso   1.000  C
  H628     1.0000 0.78900  0.14860  0.43610  Biso   1.000  H
  H629     1.0000 0.84410  0.12360  0.41510  Biso   1.000  H
  H630     1.0000 0.80250  0.15260  0.38300  Biso   1.000  H
  C595     1.0000 0.00440  0.85360  0.34040  Biso   1.000  C
  C596     1.0000 0.00260  0.88200  0.38490  Biso   1.000  C
  C597     1.0000 0.05120  0.90950  0.39350  Biso   1.000  C
  H631     1.0000 0.08330  0.91050  0.37360  Biso   1.000  H
  C598     1.0000 0.04890  0.93470  0.43270  Biso   1.000  C
  C599     1.0000 0.00190  0.93520  0.46110  Biso   1.000  C
  H632     1.0000 0.00000  0.95530  0.48610  Biso   1.000  H
  C600     1.0000 0.95560  0.90390  0.45160  Biso   1.000  C
  C601     1.0000 0.95880  0.88060  0.41100  Biso   1.000  C
  H633     1.0000 0.92670  0.86280  0.40210  Biso   1.000  H
  C602     1.0000 0.13010  0.95330  0.48550  Biso   1.000  C
  C603     1.0000 0.12590  0.99710  0.42310  Biso   1.000  C
  C604     1.0000 0.10530  0.01570  0.38170  Biso   1.000  C
  H634     1.0000 0.11640  0.99610  0.35650  Biso   1.000  H
  H635     1.0000 0.06310  0.01820  0.38290  Biso   1.000  H
  H636     1.0000 0.12210  0.04570  0.37730  Biso   1.000  H
  C605     1.0000 0.89420  0.92400  0.51840  Biso   1.000  C
  C606     1.0000 0.83980  0.91350  0.54040  Biso   1.000  C
  C607     1.0000 0.80240  0.88170  0.52880  Biso   1.000  C
  H637     1.0000 0.80930  0.86490  0.50200  Biso   1.000  H
  C608     1.0000 0.75230  0.87170  0.55500  Biso   1.000  C
  C609     1.0000 0.74330  0.90020  0.59080  Biso   1.000  C
  H638     1.0000 0.70990  0.89470  0.60870  Biso   1.000  H
  C610     1.0000 0.77690  0.93520  0.60330  Biso   1.000  C
  H639     1.0000 0.76670  0.95520  0.62720  Biso   1.000  H
  C611     1.0000 0.82700  0.93970  0.57890  Biso   1.000  C
  H640     1.0000 0.85440  0.96160  0.58850  Biso   1.000  H
  C612     1.0000 0.71050  0.84160  0.54120  Biso   1.000  C
  H641     1.0000 0.70260  0.84610  0.50890  Biso   1.000  H
  H642     1.0000 0.72410  0.81070  0.54620  Biso   1.000  H
  H643     1.0000 0.67510  0.84670  0.55860  Biso   1.000  H
  Ag25     1.0000 0.24308  0.05475  0.43797  Biso   1.000  Ag
  Ag26     1.0000 0.25014  0.98680  0.53339  Biso   1.000  Ag
  Ag27     1.0000 0.47020  0.31490  0.24983  Biso   1.000  Ag
  Ag28     1.0000 0.46451  0.21993  0.17836  Biso   1.000  Ag
  N97      1.0000 0.39110  0.27010  0.25010  Biso   1.000  N
  N98      1.0000 0.39150  0.23060  0.22420  Biso   1.000  N
  N99      1.0000 0.31640  0.22950  0.26770  Biso   1.000  N
  N100     1.0000 0.10690  0.24050  0.29570  Biso   1.000  N
  H644     1.0000 0.07840  0.22690  0.30980  Biso   1.000  H
  N101     1.0000 0.03880  0.76810  0.67400  Biso   1.000  N
  N102     1.0000 0.04470  0.80250  0.70390  Biso   1.000  N
  N103     1.0000 0.12310  0.80030  0.66350  Biso   1.000  N
  N104     1.0000 0.31790  0.74540  0.62470  Biso   1.000  N
  H645     1.0000 0.34830  0.75110  0.60780  Biso   1.000  H
  N105     1.0000 0.32920  0.02850  0.51720  Biso   1.000  N
  N106     1.0000 0.32500  0.05520  0.48020  Biso   1.000  N
  N107     1.0000 0.40990  0.06270  0.51070  Biso   1.000  N
  N108     1.0000 0.61930  0.07210  0.48030  Biso   1.000  N
  H646     1.0000 0.65110  0.08550  0.48950  Biso   1.000  H
  N109     1.0000 0.17320  0.98230  0.48620  Biso   1.000  N
  N110     1.0000 0.16950  0.00920  0.44810  Biso   1.000  N
  N111     1.0000 0.09690  0.95900  0.44700  Biso   1.000  N
  N112     1.0000 0.90560  0.90260  0.47970  Biso   1.000  N
  H647     1.0000 0.87790  0.88470  0.46990  Biso   1.000  H
  O73      1.0000 0.18210  0.13160  0.41040  Biso   1.000  O
  O74      1.0000 0.26390  0.10440  0.37970  Biso   1.000  O
  O75      1.0000 0.12770  0.29190  0.24160  Biso   1.000  O
  O76      1.0000 0.23010  0.93100  0.58820  Biso   1.000  O
  O77      1.0000 0.28810  0.89600  0.54120  Biso   1.000  O
  O78      1.0000 0.28020  0.69600  0.67240  Biso   1.000  O
  O79      1.0000 0.50040  0.15490  0.63830  Biso   1.000  O
  O80      1.0000 0.57420  0.18810  0.59850  Biso   1.000  O
  O81      1.0000 0.58520  0.01910  0.43090  Biso   1.000  O
  O82      1.0000 0.04100  0.86420  0.31080  Biso   1.000  O
  O83      1.0000 0.97140  0.81840  0.33980  Biso   1.000  O
  O84      1.0000 0.93130  0.95130  0.53550  Biso   1.000  O
  C613     1.0000 0.12230  0.91720  0.51830  Biso   1.000  C
  C614     1.0000 0.09130  0.93410  0.55960  Biso   1.000  C
  H648     1.0000 0.08630  0.90930  0.58120  Biso   1.000  H
  H649     1.0000 0.11390  0.95820  0.57380  Biso   1.000  H
  H650     1.0000 0.05340  0.94580  0.55080  Biso   1.000  H
  H651     1.0000 0.09990  0.89240  0.50440  Biso   1.000  H
  H652     1.0000 0.16050  0.90510  0.52730  Biso   1.000  H
  C615     1.0000 0.10240  0.75150  0.56720  Biso   1.000  C
  H653     1.0000 0.09920  0.78440  0.56860  Biso   1.000  H
  H654     1.0000 0.13940  0.74320  0.55350  Biso   1.000  H
  H655     1.0000 0.07080  0.73930  0.54890  Biso   1.000  H
  H656     1.0000 0.13590  0.71680  0.62120  Biso   1.000  H
  H657     1.0000 0.06810  0.70940  0.61530  Biso   1.000  H
  H658     1.0000 0.09080  0.87320  0.74170  Biso   1.000  H
  H659     1.0000 0.15410  0.85250  0.73600  Biso   1.000  H
  H660     1.0000 0.12890  0.88580  0.69830  Biso   1.000  H
  C616     1.0000 0.36750  0.67000  0.64570  Biso   1.000  C
  C617     1.0000 0.40900  0.67590  0.61380  Biso   1.000  C
  H661     1.0000 0.40490  0.69910  0.59180  Biso   1.000  H
  C618     1.0000 0.45730  0.64830  0.61300  Biso   1.000  C
  C619     1.0000 0.46200  0.61560  0.64530  Biso   1.000  C
  H662     1.0000 0.49530  0.59700  0.64580  Biso   1.000  H
  C620     1.0000 0.41980  0.60910  0.67690  Biso   1.000  C
  H663     1.0000 0.42330  0.58530  0.69820  Biso   1.000  H
  C621     1.0000 0.37250  0.63680  0.67780  Biso   1.000  C
  H664     1.0000 0.34370  0.63310  0.70040  Biso   1.000  H
  C622     1.0000 0.50160  0.65280  0.57510  Biso   1.000  C
  H665     1.0000 0.49100  0.67800  0.55540  Biso   1.000  H
  H666     1.0000 0.53980  0.65830  0.58820  Biso   1.000  H
  H667     1.0000 0.50240  0.62480  0.55730  Biso   1.000  H
  C623     1.0000 0.12790  0.87000  0.50200  Biso   1.000  C
  H668     1.0000 0.12160  0.84920  0.52740  Biso   1.000  H
  H669     1.0000 0.09910  0.86430  0.47840  Biso   1.000  H
  H670     1.0000 0.16660  0.86530  0.48960  Biso   1.000  H
  H671     1.0000 0.15080  0.92170  0.54290  Biso   1.000  H
  H672     1.0000 0.08350  0.92060  0.53190  Biso   1.000  H
  C624     1.0000 0.72370  0.63250  0.87980  Biso   1.000  C
  C625     1.0000 0.71910  0.66800  0.84590  Biso   1.000  C
  C626     1.0000 0.76840  0.68170  0.82240  Biso   1.000  C
  H673     1.0000 0.80480  0.66830  0.82850  Biso   1.000  H
  C627     1.0000 0.76350  0.71480  0.79020  Biso   1.000  C
  C628     1.0000 0.71290  0.73440  0.77880  Biso   1.000  C
  H674     1.0000 0.71140  0.75640  0.75550  Biso   1.000  H
  C629     1.0000 0.66330  0.72170  0.80190  Biso   1.000  C
  C630     1.0000 0.66640  0.68920  0.83570  Biso   1.000  C
  H675     1.0000 0.63270  0.68130  0.85210  Biso   1.000  H
  C631     1.0000 0.79700  0.84240  0.78470  Biso   1.000  C
  H676     1.0000 0.78550  0.86560  0.80660  Biso   1.000  H
  H677     1.0000 0.82280  0.85560  0.76200  Biso   1.000  H
  H678     1.0000 0.76260  0.83030  0.76970  Biso   1.000  H
  C632     1.0000 0.82870  0.80370  0.80980  Biso   1.000  C
  H679     1.0000 0.80320  0.79040  0.83310  Biso   1.000  H
  H680     1.0000 0.86370  0.81550  0.82500  Biso   1.000  H
  C633     1.0000 0.84510  0.76850  0.77520  Biso   1.000  C
  C634     1.0000 0.84360  0.70690  0.73390  Biso   1.000  C
  C635     1.0000 0.82900  0.66320  0.71650  Biso   1.000  C
  H681     1.0000 0.84360  0.63990  0.73700  Biso   1.000  H
  H682     1.0000 0.78700  0.66050  0.71400  Biso   1.000  H
  H683     1.0000 0.84640  0.65920  0.68650  Biso   1.000  H
  C636     1.0000 0.59300  0.77680  0.77090  Biso   1.000  C
  C637     1.0000 0.53700  0.79950  0.77940  Biso   1.000  C
  C638     1.0000 0.52360  0.83700  0.75450  Biso   1.000  C
  H684     1.0000 0.54720  0.84510  0.72940  Biso   1.000  H
  C639     1.0000 0.47410  0.86430  0.76590  Biso   1.000  C
  C640     1.0000 0.43950  0.84800  0.79800  Biso   1.000  C
  H685     1.0000 0.40490  0.86420  0.80390  Biso   1.000  H
  C641     1.0000 0.44970  0.80870  0.82390  Biso   1.000  C
  H686     1.0000 0.42460  0.79930  0.84750  Biso   1.000  H
  C642     1.0000 0.49910  0.78510  0.81220  Biso   1.000  C
  H687     1.0000 0.50710  0.75760  0.82750  Biso   1.000  H
  C643     1.0000 0.46200  0.90480  0.73540  Biso   1.000  C
  H688     1.0000 0.45930  0.93210  0.75390  Biso   1.000  H
  H689     1.0000 0.49340  0.90810  0.71340  Biso   1.000  H
  H690     1.0000 0.42550  0.90000  0.71930  Biso   1.000  H
  C644     1.0000 0.75400  0.39870  0.07380  Biso   1.000  C
  C645     1.0000 0.74380  0.35380  0.10000  Biso   1.000  C
  C646     1.0000 0.68780  0.34800  0.12170  Biso   1.000  C
  H691     1.0000 0.65920  0.37090  0.12110  Biso   1.000  H
  C647     1.0000 0.67870  0.30620  0.14380  Biso   1.000  C
  C648     1.0000 0.71870  0.27360  0.14590  Biso   1.000  C
  H692     1.0000 0.71070  0.24670  0.16210  Biso   1.000  H
  C649     1.0000 0.77380  0.27900  0.12360  Biso   1.000  C
  C650     1.0000 0.78160  0.32010  0.10140  Biso   1.000  C
  H693     1.0000 0.81710  0.32440  0.08590  Biso   1.000  H
  C651     1.0000 0.59910  0.23230  0.11450  Biso   1.000  C
  C652     1.0000 0.58660  0.38320  0.25870  Biso   1.000  C
  H694     1.0000 0.55410  0.36380  0.26720  Biso   1.000  H
  H695     1.0000 0.61250  0.38690  0.28470  Biso   1.000  H
  H696     1.0000 0.57210  0.41280  0.24930  Biso   1.000  H
  C653     1.0000 0.61920  0.36190  0.21990  Biso   1.000  C
  H697     1.0000 0.65720  0.35250  0.23180  Biso   1.000  H
  H698     1.0000 0.62650  0.38590  0.19730  Biso   1.000  H
  C654     1.0000 0.59500  0.32330  0.19550  Biso   1.000  C
  C655     1.0000 0.58800  0.26560  0.15050  Biso   1.000  C
  H699     1.0000 0.63790  0.23700  0.10220  Biso   1.000  H
  H700     1.0000 0.59630  0.20180  0.12710  Biso   1.000  H
  H701     1.0000 0.57060  0.23600  0.09030  Biso   1.000  H
  C656     1.0000 0.81990  0.20790  0.14690  Biso   1.000  C
  C657     1.0000 0.87360  0.18410  0.13650  Biso   1.000  C
  C658     1.0000 0.91270  0.19260  0.10170  Biso   1.000  C
  H702     1.0000 0.90860  0.21880  0.08360  Biso   1.000  H
  C659     1.0000 0.95820  0.16220  0.09340  Biso   1.000  C
  C660     1.0000 0.97030  0.12870  0.12520  Biso   1.000  C
  H703     1.0000 0.00510  0.11190  0.12330  Biso   1.000  H
  C661     1.0000 0.93130  0.11990  0.15970  Biso   1.000  C
  H704     1.0000 0.93690  0.09470  0.17900  Biso   1.000  H
  C662     1.0000 0.88360  0.14800  0.16600  Biso   1.000  C
  H705     1.0000 0.85780  0.14260  0.19040  Biso   1.000  H
  C663     1.0000 0.00100  0.17250  0.05580  Biso   1.000  C
  H706     1.0000 0.02170  0.20050  0.06290  Biso   1.000  H
  H707     1.0000 0.02860  0.14760  0.05310  Biso   1.000  H
  H708     1.0000 0.98020  0.17610  0.02710  Biso   1.000  H
  C664     1.0000 0.03460  0.65710  0.10310  Biso   1.000  C
  C665     1.0000 0.02740  0.62640  0.06600  Biso   1.000  C
  C666     1.0000 0.97220  0.60940  0.05590  Biso   1.000  C
  H709     1.0000 0.93950  0.61900  0.07270  Biso   1.000  H
  C667     1.0000 0.96650  0.57800  0.02050  Biso   1.000  C
  C668     1.0000 0.01320  0.56450  0.99460  Biso   1.000  C
  H710     1.0000 0.00840  0.54380  0.97040  Biso   1.000  H
  C669     1.0000 0.06800  0.58230  0.00530  Biso   1.000  C
  C670     1.0000 0.07410  0.61190  0.03960  Biso   1.000  C
  H711     1.0000 0.11140  0.62340  0.04620  Biso   1.000  H
  C671     1.0000 0.86450  0.47700  0.10090  Biso   1.000  C
  H712     1.0000 0.82740  0.49090  0.10850  Biso   1.000  H
  H713     1.0000 0.85810  0.45110  0.08080  Biso   1.000  H
  H714     1.0000 0.88360  0.46680  0.12870  Biso   1.000  H
  C672     1.0000 0.90130  0.51030  0.07780  Biso   1.000  C
  H715     1.0000 0.91110  0.53400  0.10020  Biso   1.000  H
  H716     1.0000 0.93780  0.49490  0.06970  Biso   1.000  H
  C673     1.0000 0.87890  0.53410  0.03500  Biso   1.000  C
  C674     1.0000 0.87440  0.57390  0.97420  Biso   1.000  C
  C675     1.0000 0.89040  0.60970  0.94070  Biso   1.000  C
  H717     1.0000 0.87820  0.63920  0.95220  Biso   1.000  H
  H718     1.0000 0.93230  0.60970  0.93630  Biso   1.000  H
  H719     1.0000 0.87120  0.60370  0.91180  Biso   1.000  H
  C676     1.0000 0.12440  0.54480  0.94500  Biso   1.000  C
  C677     1.0000 0.18080  0.55090  0.91870  Biso   1.000  C
  C678     1.0000 0.21910  0.58650  0.92670  Biso   1.000  C
  H720     1.0000 0.21120  0.60740  0.95030  Biso   1.000  H
  C679     1.0000 0.26850  0.59190  0.90080  Biso   1.000  C
  C680     1.0000 0.27760  0.56490  0.86720  Biso   1.000  C
  H721     1.0000 0.30990  0.57060  0.84820  Biso   1.000  H
  C681     1.0000 0.24400  0.52890  0.85760  Biso   1.000  C
  H722     1.0000 0.25330  0.50970  0.83290  Biso   1.000  H
  C682     1.0000 0.19190  0.51950  0.88600  Biso   1.000  C
  H723     1.0000 0.16840  0.49370  0.88170  Biso   1.000  H
  C683     1.0000 0.30410  0.63260  0.90950  Biso   1.000  C
  H724     1.0000 0.28900  0.64860  0.93610  Biso   1.000  H
  H725     1.0000 0.34410  0.62360  0.91510  Biso   1.000  H
  H726     1.0000 0.30250  0.65260  0.88300  Biso   1.000  H
  C684     1.0000 0.50440  0.35360  0.84040  Biso   1.000  C
  C685     1.0000 0.50260  0.38200  0.88490  Biso   1.000  C
  C686     1.0000 0.55120  0.40950  0.89350  Biso   1.000  C
  H727     1.0000 0.58330  0.41050  0.87360  Biso   1.000  H
  C687     1.0000 0.54890  0.43470  0.93270  Biso   1.000  C
  C688     1.0000 0.50190  0.43520  0.96110  Biso   1.000  C
  H728     1.0000 0.50000  0.45530  0.98610  Biso   1.000  H
  C689     1.0000 0.45560  0.40390  0.95160  Biso   1.000  C
  C690     1.0000 0.45880  0.38060  0.91100  Biso   1.000  C
  H729     1.0000 0.42670  0.36280  0.90210  Biso   1.000  H
  C691     1.0000 0.63010  0.45330  0.98550  Biso   1.000  C
  C692     1.0000 0.62590  0.49710  0.92310  Biso   1.000  C
  C693     1.0000 0.60530  0.51570  0.88170  Biso   1.000  C
  H730     1.0000 0.61640  0.49610  0.85650  Biso   1.000  H
  H731     1.0000 0.56310  0.51820  0.88290  Biso   1.000  H
  H732     1.0000 0.62210  0.54570  0.87730  Biso   1.000  H
  C694     1.0000 0.39420  0.42400  0.01840  Biso   1.000  C
  C695     1.0000 0.33980  0.41350  0.04040  Biso   1.000  C
  C696     1.0000 0.30240  0.38170  0.02880  Biso   1.000  C
  H733     1.0000 0.30930  0.36490  0.00200  Biso   1.000  H
  C697     1.0000 0.25230  0.37170  0.05500  Biso   1.000  C
  C698     1.0000 0.24330  0.40020  0.09080  Biso   1.000  C
  H734     1.0000 0.20990  0.39470  0.10870  Biso   1.000  H
  C699     1.0000 0.27690  0.43520  0.10330  Biso   1.000  C
  H735     1.0000 0.26670  0.45520  0.12720  Biso   1.000  H
  C700     1.0000 0.32700  0.43970  0.07890  Biso   1.000  C
  H736     1.0000 0.35440  0.46160  0.08850  Biso   1.000  H
  C701     1.0000 0.21050  0.34160  0.04120  Biso   1.000  C
  H737     1.0000 0.20260  0.34610  0.00890  Biso   1.000  H
  H738     1.0000 0.22410  0.31070  0.04620  Biso   1.000  H
  H739     1.0000 0.17510  0.34670  0.05860  Biso   1.000  H
  Ag29     1.0000 0.74308  0.55475  0.93797  Biso   1.000  Ag
  Ag30     1.0000 0.75014  0.48680  0.03339  Biso   1.000  Ag
  Ag31     1.0000 0.97020  0.81490  0.74983  Biso   1.000  Ag
  Ag32     1.0000 0.96451  0.71993  0.67836  Biso   1.000  Ag
  N113     1.0000 0.89110  0.77010  0.75010  Biso   1.000  N
  N114     1.0000 0.89150  0.73060  0.72420  Biso   1.000  N
  N115     1.0000 0.81640  0.72950  0.76770  Biso   1.000  N
  N116     1.0000 0.60690  0.74050  0.79570  Biso   1.000  N
  H740     1.0000 0.57840  0.72690  0.80980  Biso   1.000  H
  N117     1.0000 0.53880  0.26810  0.17400  Biso   1.000  N
  N118     1.0000 0.54470  0.30250  0.20390  Biso   1.000  N
  N119     1.0000 0.62310  0.30030  0.16350  Biso   1.000  N
  N120     1.0000 0.81790  0.24540  0.12470  Biso   1.000  N
  H741     1.0000 0.84830  0.25110  0.10780  Biso   1.000  H
  N121     1.0000 0.82920  0.52850  0.01720  Biso   1.000  N
  N122     1.0000 0.82500  0.55520  0.98020  Biso   1.000  N
  N123     1.0000 0.90990  0.56270  0.01070  Biso   1.000  N
  N124     1.0000 0.11930  0.57210  0.98030  Biso   1.000  N
  H742     1.0000 0.15110  0.58550  0.98950  Biso   1.000  H
  N125     1.0000 0.67320  0.48230  0.98620  Biso   1.000  N
  N126     1.0000 0.66950  0.50920  0.94810  Biso   1.000  N
  N127     1.0000 0.59690  0.45900  0.94700  Biso   1.000  N
  N128     1.0000 0.40560  0.40260  0.97970  Biso   1.000  N
  H743     1.0000 0.37790  0.38470  0.96990  Biso   1.000  H
  O85      1.0000 0.68210  0.63160  0.91040  Biso   1.000  O
  O86      1.0000 0.76390  0.60440  0.87970  Biso   1.000  O
  O87      1.0000 0.62770  0.79190  0.74160  Biso   1.000  O
  O88      1.0000 0.73010  0.43100  0.08820  Biso   1.000  O
  O89      1.0000 0.78810  0.39600  0.04120  Biso   1.000  O
  O90      1.0000 0.78020  0.19600  0.17240  Biso   1.000  O
  O91      1.0000 0.00040  0.65490  0.13830  Biso   1.000  O
  O92      1.0000 0.07420  0.68810  0.09850  Biso   1.000  O
  O93      1.0000 0.08520  0.51910  0.93090  Biso   1.000  O
  O94      1.0000 0.54100  0.36420  0.81080  Biso   1.000  O
  O95      1.0000 0.47140  0.31840  0.83980  Biso   1.000  O
  O96      1.0000 0.43130  0.45130  0.03550  Biso   1.000  O
  C702     1.0000 0.62230  0.41720  0.01830  Biso   1.000  C
  C703     1.0000 0.59130  0.43410  0.05960  Biso   1.000  C
  H744     1.0000 0.58630  0.40930  0.08120  Biso   1.000  H
  H745     1.0000 0.61390  0.45820  0.07380  Biso   1.000  H
  H746     1.0000 0.55340  0.44580  0.05080  Biso   1.000  H
  H747     1.0000 0.59990  0.39240  0.00440  Biso   1.000  H
  H748     1.0000 0.66050  0.40510  0.02730  Biso   1.000  H
  C704     1.0000 0.60240  0.25150  0.06720  Biso   1.000  C
  H749     1.0000 0.59920  0.28440  0.06860  Biso   1.000  H
  H750     1.0000 0.63940  0.24320  0.05350  Biso   1.000  H
  H751     1.0000 0.57080  0.23930  0.04890  Biso   1.000  H
  H752     1.0000 0.63590  0.21680  0.12120  Biso   1.000  H
  H753     1.0000 0.56810  0.20940  0.11530  Biso   1.000  H
  H754     1.0000 0.59080  0.37320  0.24170  Biso   1.000  H
  H755     1.0000 0.65410  0.35250  0.23600  Biso   1.000  H
  H756     1.0000 0.62890  0.38580  0.19830  Biso   1.000  H
  C705     1.0000 0.86750  0.17000  0.14570  Biso   1.000  C
  C706     1.0000 0.90900  0.17590  0.11380  Biso   1.000  C
  H757     1.0000 0.90490  0.19910  0.09180  Biso   1.000  H
  C707     1.0000 0.95730  0.14830  0.11300  Biso   1.000  C
  C708     1.0000 0.96200  0.11560  0.14530  Biso   1.000  C
  H758     1.0000 0.99530  0.09700  0.14580  Biso   1.000  H
  C709     1.0000 0.91980  0.10910  0.17690  Biso   1.000  C
  H759     1.0000 0.92330  0.08530  0.19820  Biso   1.000  H
  C710     1.0000 0.87250  0.13680  0.17780  Biso   1.000  C
  H760     1.0000 0.84370  0.13310  0.20040  Biso   1.000  H
  C711     1.0000 0.00160  0.15280  0.07510  Biso   1.000  C
  H761     1.0000 0.99100  0.17800  0.05540  Biso   1.000  H
  H762     1.0000 0.03980  0.15830  0.08820  Biso   1.000  H
  H763     1.0000 0.00240  0.12480  0.05730  Biso   1.000  H
  C712     1.0000 0.62790  0.37000  0.00200  Biso   1.000  C
  H764     1.0000 0.62160  0.34920  0.02740  Biso   1.000  H
  H765     1.0000 0.59910  0.36430  0.97840  Biso   1.000  H
  H766     1.0000 0.66660  0.36530  0.98960  Biso   1.000  H
  H767     1.0000 0.65080  0.42170  0.04290  Biso   1.000  H
  H768     1.0000 0.58350  0.42060  0.03190  Biso   1.000  H
