data_image0
_cell_length_a       37.023
_cell_length_b       37.023
_cell_length_c       29.896
_cell_angle_alpha    90
_cell_angle_beta     90
_cell_angle_gamma    120

_symmetry_space_group_name_H-M    "P 1"
_symmetry_int_tables_number       1

loop_
  _symmetry_equiv_pos_as_xyz
  'x, y, z'

loop_
  _atom_site_label
  _atom_site_occupancy
  _atom_site_fract_x
  _atom_site_fract_y
  _atom_site_fract_z
  _atom_site_thermal_displace_type
  _atom_site_B_iso_or_equiv
  _atom_site_type_symbol
  Zn1      1.0000 0.37547  0.65418  0.72335  Biso   1.000  Zn
  Zn2      1.0000 0.16291  0.37182  0.29486  Biso   1.000  Zn
  Zn3      1.0000 0.18905  0.30356  0.27877  Biso   1.000  Zn
  O1       1.0000 0.23140  0.35570  0.32660  Biso   1.000  O
  O2       1.0000 0.18360  0.36580  0.34890  Biso   1.000  O
  O3       1.0000 0.18130  0.32530  0.36130  Biso   1.000  O
  O4       1.0000 0.20290  0.31930  0.34250  Biso   1.000  O
  O5       1.0000 0.41140  0.66210  0.77080  Biso   1.000  O
  O6       1.0000 0.35810  0.60290  0.70400  Biso   1.000  O
  O7       1.0000 0.32460  0.61580  0.66140  Biso   1.000  O
  O8       1.0000 0.29600  0.57900  0.69000  Biso   1.000  O
  O9       1.0000 0.12300  0.36580  0.26270  Biso   1.000  O
  O10      1.0000 0.10760  0.35320  0.30810  Biso   1.000  O
  O11      1.0000 0.08720  0.30220  0.32070  Biso   1.000  O
  O12      1.0000 0.23710  0.30510  0.24660  Biso   1.000  O
  O13      1.0000 0.12850  0.23400  0.21880  Biso   1.000  O
  O14      1.0000 0.14420  0.24090  0.27320  Biso   1.000  O
  O15      1.0000 0.18060  0.42330  0.24920  Biso   1.000  O
  O16      1.0000 0.19390  0.42870  0.27720  Biso   1.000  O
  C1       1.0000 0.27090  0.38610  0.54130  Biso   1.000  C
  C2       1.0000 0.27930  0.42570  0.55570  Biso   1.000  C
  C3       1.0000 0.29620  0.42920  0.60160  Biso   1.000  C
  C4       1.0000 0.29940  0.40320  0.62950  Biso   1.000  C
  C5       1.0000 0.29200  0.36360  0.60930  Biso   1.000  C
  C6       1.0000 0.27560  0.35280  0.56380  Biso   1.000  C
  C7       1.0000 0.29990  0.46600  0.62310  Biso   1.000  C
  C8       1.0000 0.28020  0.48990  0.61020  Biso   1.000  C
  C9       1.0000 0.29260  0.52860  0.63430  Biso   1.000  C
  C10      1.0000 0.32030  0.55100  0.67110  Biso   1.000  C
  C11      1.0000 0.33770  0.52440  0.67870  Biso   1.000  C
  C12      1.0000 0.32970  0.48510  0.65930  Biso   1.000  C
  C13      1.0000 0.28430  0.32210  0.67890  Biso   1.000  C
  C14      1.0000 0.32160  0.28230  0.63720  Biso   1.000  C
  C15      1.0000 0.29810  0.29760  0.61300  Biso   1.000  C
  C16      1.0000 0.30590  0.33510  0.63620  Biso   1.000  C
  C17      1.0000 0.24620  0.36990  0.49580  Biso   1.000  C
  C18      1.0000 0.23140  0.32990  0.47400  Biso   1.000  C
  C19      1.0000 0.21650  0.32200  0.42820  Biso   1.000  C
  C20      1.0000 0.22600  0.36000  0.40460  Biso   1.000  C
  C21      1.0000 0.21650  0.38690  0.43150  Biso   1.000  C
  C22      1.0000 0.24830  0.40170  0.46590  Biso   1.000  C
  C23      1.0000 0.20870  0.35590  0.35720  Biso   1.000  C
  C24      1.0000 0.33430  0.59580  0.68450  Biso   1.000  C
  C25      1.0000 0.07860  0.32840  0.29070  Biso   1.000  C
  C26      1.0000 0.24980  0.55320  0.27200  Biso   1.000  C
  C27      1.0000 0.22560  0.51020  0.26020  Biso   1.000  C
  C28      1.0000 0.29610  0.29680  0.70570  Biso   1.000  C
  C29      1.0000 0.31530  0.27510  0.68470  Biso   1.000  C
  Zn4      1.0000 0.15468  0.29069  0.19846  Biso   1.000  Zn
  Zn5      1.0000 0.22195  0.36196  0.26189  Biso   1.000  Zn
  Zn6      1.0000 0.34582  0.72129  0.72335  Biso   1.000  Zn
  Zn7      1.0000 0.62818  0.79109  0.29486  Biso   1.000  Zn
  Zn8      1.0000 0.69644  0.88549  0.27877  Biso   1.000  Zn
  O17      1.0000 0.64430  0.87570  0.32660  Biso   1.000  O
  O18      1.0000 0.63420  0.81780  0.34890  Biso   1.000  O
  O19      1.0000 0.67470  0.85600  0.36130  Biso   1.000  O
  O20      1.0000 0.68070  0.88360  0.34250  Biso   1.000  O
  O21      1.0000 0.33790  0.74930  0.77080  Biso   1.000  O
  O22      1.0000 0.39710  0.75520  0.70400  Biso   1.000  O
  O23      1.0000 0.38420  0.70880  0.66140  Biso   1.000  O
  O24      1.0000 0.42100  0.71700  0.69000  Biso   1.000  O
  O25      1.0000 0.63420  0.75720  0.26270  Biso   1.000  O
  O26      1.0000 0.64680  0.75440  0.30810  Biso   1.000  O
  O27      1.0000 0.69780  0.78500  0.32070  Biso   1.000  O
  O28      1.0000 0.69490  0.93200  0.24660  Biso   1.000  O
  O29      1.0000 0.76600  0.89450  0.21880  Biso   1.000  O
  O30      1.0000 0.75910  0.90330  0.27320  Biso   1.000  O
  O31      1.0000 0.57670  0.75730  0.24920  Biso   1.000  O
  O32      1.0000 0.57130  0.76520  0.27720  Biso   1.000  O
  C30      1.0000 0.61390  0.88480  0.54130  Biso   1.000  C
  C31      1.0000 0.57430  0.85360  0.55570  Biso   1.000  C
  C32      1.0000 0.57080  0.86700  0.60160  Biso   1.000  C
  C33      1.0000 0.59680  0.89620  0.62950  Biso   1.000  C
  C34      1.0000 0.63640  0.92840  0.60930  Biso   1.000  C
  C35      1.0000 0.64720  0.92280  0.56380  Biso   1.000  C
  C36      1.0000 0.53400  0.83390  0.62310  Biso   1.000  C
  C37      1.0000 0.51010  0.79030  0.61020  Biso   1.000  C
  C38      1.0000 0.47140  0.76400  0.63430  Biso   1.000  C
  C39      1.0000 0.44900  0.76930  0.67110  Biso   1.000  C
  C40      1.0000 0.47560  0.81330  0.67870  Biso   1.000  C
  C41      1.0000 0.51490  0.84460  0.65930  Biso   1.000  C
  C42      1.0000 0.67790  0.96220  0.67890  Biso   1.000  C
  C43      1.0000 0.71770  0.03930  0.63720  Biso   1.000  C
  C44      1.0000 0.70240  0.00050  0.61300  Biso   1.000  C
  C45      1.0000 0.66490  0.97080  0.63620  Biso   1.000  C
  C46      1.0000 0.63010  0.87630  0.49580  Biso   1.000  C
  C47      1.0000 0.67010  0.90150  0.47400  Biso   1.000  C
  C48      1.0000 0.67800  0.89450  0.42820  Biso   1.000  C
  C49      1.0000 0.64000  0.86600  0.40460  Biso   1.000  C
  C50      1.0000 0.61310  0.82960  0.43150  Biso   1.000  C
  C51      1.0000 0.59830  0.84660  0.46590  Biso   1.000  C
  C52      1.0000 0.64410  0.85280  0.35720  Biso   1.000  C
  C53      1.0000 0.40420  0.73850  0.68450  Biso   1.000  C
  C54      1.0000 0.67160  0.75020  0.29070  Biso   1.000  C
  C55      1.0000 0.44680  0.69660  0.27200  Biso   1.000  C
  C56      1.0000 0.48980  0.71540  0.26020  Biso   1.000  C
  C57      1.0000 0.70320  0.99930  0.70570  Biso   1.000  C
  C58      1.0000 0.72490  0.04020  0.68470  Biso   1.000  C
  Zn9      1.0000 0.70931  0.86399  0.19846  Biso   1.000  Zn
  Zn10     1.0000 0.63804  0.85999  0.26189  Biso   1.000  Zn
  Zn11     1.0000 0.27871  0.62453  0.72335  Biso   1.000  Zn
  Zn12     1.0000 0.20891  0.83709  0.29486  Biso   1.000  Zn
  Zn13     1.0000 0.11451  0.81095  0.27877  Biso   1.000  Zn
  O33      1.0000 0.12430  0.76860  0.32660  Biso   1.000  O
  O34      1.0000 0.18220  0.81640  0.34890  Biso   1.000  O
  O35      1.0000 0.14400  0.81870  0.36130  Biso   1.000  O
  O36      1.0000 0.11640  0.79710  0.34250  Biso   1.000  O
  O37      1.0000 0.25070  0.58860  0.77080  Biso   1.000  O
  O38      1.0000 0.24480  0.64190  0.70400  Biso   1.000  O
  O39      1.0000 0.29120  0.67540  0.66140  Biso   1.000  O
  O40      1.0000 0.28300  0.70400  0.69000  Biso   1.000  O
  O41      1.0000 0.24280  0.87700  0.26270  Biso   1.000  O
  O42      1.0000 0.24560  0.89240  0.30810  Biso   1.000  O
  O43      1.0000 0.21500  0.91280  0.32070  Biso   1.000  O
  O44      1.0000 0.06800  0.76290  0.24660  Biso   1.000  O
  O45      1.0000 0.10550  0.87150  0.21880  Biso   1.000  O
  O46      1.0000 0.09670  0.85580  0.27320  Biso   1.000  O
  O47      1.0000 0.24270  0.81940  0.24920  Biso   1.000  O
  O48      1.0000 0.23480  0.80610  0.27720  Biso   1.000  O
  C59      1.0000 0.11520  0.72910  0.54130  Biso   1.000  C
  C60      1.0000 0.14640  0.72070  0.55570  Biso   1.000  C
  C61      1.0000 0.13300  0.70380  0.60160  Biso   1.000  C
  C62      1.0000 0.10380  0.70060  0.62950  Biso   1.000  C
  C63      1.0000 0.07160  0.70800  0.60930  Biso   1.000  C
  C64      1.0000 0.07720  0.72440  0.56380  Biso   1.000  C
  C65      1.0000 0.16610  0.70010  0.62310  Biso   1.000  C
  C66      1.0000 0.20970  0.71980  0.61020  Biso   1.000  C
  C67      1.0000 0.23600  0.70740  0.63430  Biso   1.000  C
  C68      1.0000 0.23070  0.67970  0.67110  Biso   1.000  C
  C69      1.0000 0.18670  0.66230  0.67870  Biso   1.000  C
  C70      1.0000 0.15540  0.67030  0.65930  Biso   1.000  C
  C71      1.0000 0.03780  0.71570  0.67890  Biso   1.000  C
  C72      1.0000 0.96070  0.67840  0.63720  Biso   1.000  C
  C73      1.0000 0.99950  0.70190  0.61300  Biso   1.000  C
  C74      1.0000 0.02920  0.69410  0.63620  Biso   1.000  C
  C75      1.0000 0.12370  0.75380  0.49580  Biso   1.000  C
  C76      1.0000 0.09850  0.76860  0.47400  Biso   1.000  C
  C77      1.0000 0.10550  0.78350  0.42820  Biso   1.000  C
  C78      1.0000 0.13400  0.77400  0.40460  Biso   1.000  C
  C79      1.0000 0.17040  0.78350  0.43150  Biso   1.000  C
  C80      1.0000 0.15340  0.75170  0.46590  Biso   1.000  C
  C81      1.0000 0.14720  0.79130  0.35720  Biso   1.000  C
  C82      1.0000 0.26150  0.66570  0.68450  Biso   1.000  C
  C83      1.0000 0.24980  0.92140  0.29070  Biso   1.000  C
  C84      1.0000 0.30340  0.75020  0.27200  Biso   1.000  C
  C85      1.0000 0.28460  0.77440  0.26020  Biso   1.000  C
  C86      1.0000 0.00070  0.70390  0.70570  Biso   1.000  C
  C87      1.0000 0.95980  0.68470  0.68470  Biso   1.000  C
  Zn14     1.0000 0.13601  0.84532  0.19846  Biso   1.000  Zn
  Zn15     1.0000 0.14001  0.77805  0.26189  Biso   1.000  Zn
  Zn16     1.0000 0.34582  0.62453  0.77665  Biso   1.000  Zn
  Zn17     1.0000 0.62818  0.83709  0.20514  Biso   1.000  Zn
  Zn18     1.0000 0.69644  0.81095  0.22123  Biso   1.000  Zn
  O49      1.0000 0.64430  0.76860  0.17340  Biso   1.000  O
  O50      1.0000 0.63420  0.81640  0.15110  Biso   1.000  O
  O51      1.0000 0.67470  0.81870  0.13870  Biso   1.000  O
  O52      1.0000 0.68070  0.79710  0.15750  Biso   1.000  O
  O53      1.0000 0.33790  0.58860  0.72920  Biso   1.000  O
  O54      1.0000 0.39710  0.64190  0.79600  Biso   1.000  O
  O55      1.0000 0.38420  0.67540  0.83860  Biso   1.000  O
  O56      1.0000 0.42100  0.70400  0.81000  Biso   1.000  O
  O57      1.0000 0.63420  0.87700  0.23730  Biso   1.000  O
  O58      1.0000 0.64680  0.89240  0.19190  Biso   1.000  O
  O59      1.0000 0.69780  0.91280  0.17930  Biso   1.000  O
  O60      1.0000 0.69490  0.76290  0.25340  Biso   1.000  O
  O61      1.0000 0.76600  0.87150  0.28120  Biso   1.000  O
  O62      1.0000 0.75910  0.85580  0.22680  Biso   1.000  O
  O63      1.0000 0.57670  0.81940  0.25080  Biso   1.000  O
  O64      1.0000 0.57130  0.80610  0.22280  Biso   1.000  O
  C88      1.0000 0.61390  0.72910  0.95870  Biso   1.000  C
  C89      1.0000 0.57430  0.72070  0.94430  Biso   1.000  C
  C90      1.0000 0.57080  0.70380  0.89840  Biso   1.000  C
  C91      1.0000 0.59680  0.70060  0.87050  Biso   1.000  C
  C92      1.0000 0.63640  0.70800  0.89070  Biso   1.000  C
  C93      1.0000 0.64720  0.72440  0.93620  Biso   1.000  C
  C94      1.0000 0.53400  0.70010  0.87690  Biso   1.000  C
  C95      1.0000 0.51010  0.71980  0.88980  Biso   1.000  C
  C96      1.0000 0.47140  0.70740  0.86570  Biso   1.000  C
  C97      1.0000 0.44900  0.67970  0.82890  Biso   1.000  C
  C98      1.0000 0.47560  0.66230  0.82130  Biso   1.000  C
  C99      1.0000 0.51490  0.67030  0.84070  Biso   1.000  C
  C100     1.0000 0.67790  0.71570  0.82110  Biso   1.000  C
  C101     1.0000 0.71770  0.67840  0.86280  Biso   1.000  C
  C102     1.0000 0.70240  0.70190  0.88700  Biso   1.000  C
  C103     1.0000 0.66490  0.69410  0.86380  Biso   1.000  C
  C104     1.0000 0.63010  0.75380  0.00420  Biso   1.000  C
  C105     1.0000 0.67010  0.76860  0.02600  Biso   1.000  C
  C106     1.0000 0.67800  0.78350  0.07180  Biso   1.000  C
  C107     1.0000 0.64000  0.77400  0.09540  Biso   1.000  C
  C108     1.0000 0.61310  0.78350  0.06850  Biso   1.000  C
  C109     1.0000 0.59830  0.75170  0.03410  Biso   1.000  C
  C110     1.0000 0.64410  0.79130  0.14280  Biso   1.000  C
  C111     1.0000 0.40420  0.66570  0.81550  Biso   1.000  C
  C112     1.0000 0.67160  0.92140  0.20930  Biso   1.000  C
  C113     1.0000 0.44680  0.75020  0.22800  Biso   1.000  C
  C114     1.0000 0.48980  0.77440  0.23980  Biso   1.000  C
  C115     1.0000 0.70320  0.70390  0.79430  Biso   1.000  C
  C116     1.0000 0.72490  0.68470  0.81530  Biso   1.000  C
  Zn19     1.0000 0.70931  0.84532  0.30154  Biso   1.000  Zn
  Zn20     1.0000 0.63804  0.77805  0.23811  Biso   1.000  Zn
  Zn21     1.0000 0.27871  0.65418  0.77665  Biso   1.000  Zn
  Zn22     1.0000 0.20891  0.37182  0.20514  Biso   1.000  Zn
  Zn23     1.0000 0.11451  0.30356  0.22123  Biso   1.000  Zn
  O65      1.0000 0.12430  0.35570  0.17340  Biso   1.000  O
  O66      1.0000 0.18220  0.36580  0.15110  Biso   1.000  O
  O67      1.0000 0.14400  0.32530  0.13870  Biso   1.000  O
  O68      1.0000 0.11640  0.31930  0.15750  Biso   1.000  O
  O69      1.0000 0.25070  0.66210  0.72920  Biso   1.000  O
  O70      1.0000 0.24480  0.60290  0.79600  Biso   1.000  O
  O71      1.0000 0.29120  0.61580  0.83860  Biso   1.000  O
  O72      1.0000 0.28300  0.57900  0.81000  Biso   1.000  O
  O73      1.0000 0.24280  0.36580  0.23730  Biso   1.000  O
  O74      1.0000 0.24560  0.35320  0.19190  Biso   1.000  O
  O75      1.0000 0.21500  0.30220  0.17930  Biso   1.000  O
  O76      1.0000 0.06800  0.30510  0.25340  Biso   1.000  O
  O77      1.0000 0.10550  0.23400  0.28120  Biso   1.000  O
  O78      1.0000 0.09670  0.24090  0.22680  Biso   1.000  O
  O79      1.0000 0.24270  0.42330  0.25080  Biso   1.000  O
  O80      1.0000 0.23480  0.42870  0.22280  Biso   1.000  O
  C117     1.0000 0.11520  0.38610  0.95870  Biso   1.000  C
  C118     1.0000 0.14640  0.42570  0.94430  Biso   1.000  C
  C119     1.0000 0.13300  0.42920  0.89840  Biso   1.000  C
  C120     1.0000 0.10380  0.40320  0.87050  Biso   1.000  C
  C121     1.0000 0.07160  0.36360  0.89070  Biso   1.000  C
  C122     1.0000 0.07720  0.35280  0.93620  Biso   1.000  C
  C123     1.0000 0.16610  0.46600  0.87690  Biso   1.000  C
  C124     1.0000 0.20970  0.48990  0.88980  Biso   1.000  C
  C125     1.0000 0.23600  0.52860  0.86570  Biso   1.000  C
  C126     1.0000 0.23070  0.55100  0.82890  Biso   1.000  C
  C127     1.0000 0.18670  0.52440  0.82130  Biso   1.000  C
  C128     1.0000 0.15540  0.48510  0.84070  Biso   1.000  C
  C129     1.0000 0.03780  0.32210  0.82110  Biso   1.000  C
  C130     1.0000 0.96070  0.28230  0.86280  Biso   1.000  C
  C131     1.0000 0.99950  0.29760  0.88700  Biso   1.000  C
  C132     1.0000 0.02920  0.33510  0.86380  Biso   1.000  C
  C133     1.0000 0.12370  0.36990  0.00420  Biso   1.000  C
  C134     1.0000 0.09850  0.32990  0.02600  Biso   1.000  C
  C135     1.0000 0.10550  0.32200  0.07180  Biso   1.000  C
  C136     1.0000 0.13400  0.36000  0.09540  Biso   1.000  C
  C137     1.0000 0.17040  0.38690  0.06850  Biso   1.000  C
  C138     1.0000 0.15340  0.40170  0.03410  Biso   1.000  C
  C139     1.0000 0.14720  0.35590  0.14280  Biso   1.000  C
  C140     1.0000 0.26150  0.59580  0.81550  Biso   1.000  C
  C141     1.0000 0.24980  0.32840  0.20930  Biso   1.000  C
  C142     1.0000 0.30340  0.55320  0.22800  Biso   1.000  C
  C143     1.0000 0.28460  0.51020  0.23980  Biso   1.000  C
  C144     1.0000 0.00070  0.29680  0.79430  Biso   1.000  C
  C145     1.0000 0.95980  0.27510  0.81530  Biso   1.000  C
  Zn24     1.0000 0.13601  0.29069  0.30154  Biso   1.000  Zn
  Zn25     1.0000 0.14001  0.36196  0.23811  Biso   1.000  Zn
  Zn26     1.0000 0.37547  0.72129  0.77665  Biso   1.000  Zn
  Zn27     1.0000 0.16291  0.79109  0.20514  Biso   1.000  Zn
  Zn28     1.0000 0.18905  0.88549  0.22123  Biso   1.000  Zn
  O81      1.0000 0.23140  0.87570  0.17340  Biso   1.000  O
  O82      1.0000 0.18360  0.81780  0.15110  Biso   1.000  O
  O83      1.0000 0.18130  0.85600  0.13870  Biso   1.000  O
  O84      1.0000 0.20290  0.88360  0.15750  Biso   1.000  O
  O85      1.0000 0.41140  0.74930  0.72920  Biso   1.000  O
  O86      1.0000 0.35810  0.75520  0.79600  Biso   1.000  O
  O87      1.0000 0.32460  0.70880  0.83860  Biso   1.000  O
  O88      1.0000 0.29600  0.71700  0.81000  Biso   1.000  O
  O89      1.0000 0.12300  0.75720  0.23730  Biso   1.000  O
  O90      1.0000 0.10760  0.75440  0.19190  Biso   1.000  O
  O91      1.0000 0.08720  0.78500  0.17930  Biso   1.000  O
  O92      1.0000 0.23710  0.93200  0.25340  Biso   1.000  O
  O93      1.0000 0.12850  0.89450  0.28120  Biso   1.000  O
  O94      1.0000 0.14420  0.90330  0.22680  Biso   1.000  O
  O95      1.0000 0.18060  0.75730  0.25080  Biso   1.000  O
  O96      1.0000 0.19390  0.76520  0.22280  Biso   1.000  O
  C146     1.0000 0.27090  0.88480  0.95870  Biso   1.000  C
  C147     1.0000 0.27930  0.85360  0.94430  Biso   1.000  C
  C148     1.0000 0.29620  0.86700  0.89840  Biso   1.000  C
  C149     1.0000 0.29940  0.89620  0.87050  Biso   1.000  C
  C150     1.0000 0.29200  0.92840  0.89070  Biso   1.000  C
  C151     1.0000 0.27560  0.92280  0.93620  Biso   1.000  C
  C152     1.0000 0.29990  0.83390  0.87690  Biso   1.000  C
  C153     1.0000 0.28020  0.79030  0.88980  Biso   1.000  C
  C154     1.0000 0.29260  0.76400  0.86570  Biso   1.000  C
  C155     1.0000 0.32030  0.76930  0.82890  Biso   1.000  C
  C156     1.0000 0.33770  0.81330  0.82130  Biso   1.000  C
  C157     1.0000 0.32970  0.84460  0.84070  Biso   1.000  C
  C158     1.0000 0.28430  0.96220  0.82110  Biso   1.000  C
  C159     1.0000 0.32160  0.03930  0.86280  Biso   1.000  C
  C160     1.0000 0.29810  0.00050  0.88700  Biso   1.000  C
  C161     1.0000 0.30590  0.97080  0.86380  Biso   1.000  C
  C162     1.0000 0.24620  0.87630  0.00420  Biso   1.000  C
  C163     1.0000 0.23140  0.90150  0.02600  Biso   1.000  C
  C164     1.0000 0.21650  0.89450  0.07180  Biso   1.000  C
  C165     1.0000 0.22600  0.86600  0.09540  Biso   1.000  C
  C166     1.0000 0.21650  0.82960  0.06850  Biso   1.000  C
  C167     1.0000 0.24830  0.84660  0.03410  Biso   1.000  C
  C168     1.0000 0.20870  0.85280  0.14280  Biso   1.000  C
  C169     1.0000 0.33430  0.73850  0.81550  Biso   1.000  C
  C170     1.0000 0.07860  0.75020  0.20930  Biso   1.000  C
  C171     1.0000 0.24980  0.69660  0.22800  Biso   1.000  C
  C172     1.0000 0.22560  0.71540  0.23980  Biso   1.000  C
  C173     1.0000 0.29610  0.99930  0.79430  Biso   1.000  C
  C174     1.0000 0.31530  0.04020  0.81530  Biso   1.000  C
  Zn29     1.0000 0.15468  0.86399  0.30154  Biso   1.000  Zn
  Zn30     1.0000 0.22195  0.85999  0.23811  Biso   1.000  Zn
  Zn31     1.0000 0.62453  0.34582  0.27665  Biso   1.000  Zn
  Zn32     1.0000 0.83709  0.62818  0.70514  Biso   1.000  Zn
  Zn33     1.0000 0.81095  0.69644  0.72123  Biso   1.000  Zn
  O97      1.0000 0.76860  0.64430  0.67340  Biso   1.000  O
  O98      1.0000 0.81640  0.63420  0.65110  Biso   1.000  O
  O99      1.0000 0.81870  0.67470  0.63870  Biso   1.000  O
  O100     1.0000 0.79710  0.68070  0.65750  Biso   1.000  O
  O101     1.0000 0.58860  0.33790  0.22920  Biso   1.000  O
  O102     1.0000 0.64190  0.39710  0.29600  Biso   1.000  O
  O103     1.0000 0.67540  0.38420  0.33860  Biso   1.000  O
  O104     1.0000 0.70400  0.42100  0.31000  Biso   1.000  O
  O105     1.0000 0.87700  0.63420  0.73730  Biso   1.000  O
  O106     1.0000 0.89240  0.64680  0.69190  Biso   1.000  O
  O107     1.0000 0.91280  0.69780  0.67930  Biso   1.000  O
  O108     1.0000 0.76290  0.69490  0.75340  Biso   1.000  O
  O109     1.0000 0.87150  0.76600  0.78120  Biso   1.000  O
  O110     1.0000 0.85580  0.75910  0.72680  Biso   1.000  O
  O111     1.0000 0.81940  0.57670  0.75080  Biso   1.000  O
  O112     1.0000 0.80610  0.57130  0.72280  Biso   1.000  O
  C175     1.0000 0.72910  0.61390  0.45870  Biso   1.000  C
  C176     1.0000 0.72070  0.57430  0.44430  Biso   1.000  C
  C177     1.0000 0.70380  0.57080  0.39840  Biso   1.000  C
  C178     1.0000 0.70060  0.59680  0.37050  Biso   1.000  C
  C179     1.0000 0.70800  0.63640  0.39070  Biso   1.000  C
  C180     1.0000 0.72440  0.64720  0.43620  Biso   1.000  C
  C181     1.0000 0.70010  0.53400  0.37690  Biso   1.000  C
  C182     1.0000 0.71980  0.51010  0.38980  Biso   1.000  C
  C183     1.0000 0.70740  0.47140  0.36570  Biso   1.000  C
  C184     1.0000 0.67970  0.44900  0.32890  Biso   1.000  C
  C185     1.0000 0.66230  0.47560  0.32130  Biso   1.000  C
  C186     1.0000 0.67030  0.51490  0.34070  Biso   1.000  C
  C187     1.0000 0.71570  0.67790  0.32110  Biso   1.000  C
  C188     1.0000 0.67840  0.71770  0.36280  Biso   1.000  C
  C189     1.0000 0.70190  0.70240  0.38700  Biso   1.000  C
  C190     1.0000 0.69410  0.66490  0.36380  Biso   1.000  C
  C191     1.0000 0.75380  0.63010  0.50420  Biso   1.000  C
  C192     1.0000 0.76860  0.67010  0.52600  Biso   1.000  C
  C193     1.0000 0.78350  0.67800  0.57180  Biso   1.000  C
  C194     1.0000 0.77400  0.64000  0.59540  Biso   1.000  C
  C195     1.0000 0.78350  0.61310  0.56850  Biso   1.000  C
  C196     1.0000 0.75170  0.59830  0.53410  Biso   1.000  C
  C197     1.0000 0.79130  0.64410  0.64280  Biso   1.000  C
  C198     1.0000 0.66570  0.40420  0.31550  Biso   1.000  C
  C199     1.0000 0.92140  0.67160  0.70930  Biso   1.000  C
  C200     1.0000 0.75020  0.44680  0.72800  Biso   1.000  C
  C201     1.0000 0.77440  0.48980  0.73980  Biso   1.000  C
  C202     1.0000 0.70390  0.70320  0.29430  Biso   1.000  C
  C203     1.0000 0.68470  0.72490  0.31530  Biso   1.000  C
  Zn34     1.0000 0.84532  0.70931  0.80154  Biso   1.000  Zn
  Zn35     1.0000 0.77805  0.63804  0.73811  Biso   1.000  Zn
  Zn36     1.0000 0.65418  0.27871  0.27665  Biso   1.000  Zn
  Zn37     1.0000 0.37182  0.20891  0.70514  Biso   1.000  Zn
  Zn38     1.0000 0.30356  0.11451  0.72123  Biso   1.000  Zn
  O113     1.0000 0.35570  0.12430  0.67340  Biso   1.000  O
  O114     1.0000 0.36580  0.18220  0.65110  Biso   1.000  O
  O115     1.0000 0.32530  0.14400  0.63870  Biso   1.000  O
  O116     1.0000 0.31930  0.11640  0.65750  Biso   1.000  O
  O117     1.0000 0.66210  0.25070  0.22920  Biso   1.000  O
  O118     1.0000 0.60290  0.24480  0.29600  Biso   1.000  O
  O119     1.0000 0.61580  0.29120  0.33860  Biso   1.000  O
  O120     1.0000 0.57900  0.28300  0.31000  Biso   1.000  O
  O121     1.0000 0.36580  0.24280  0.73730  Biso   1.000  O
  O122     1.0000 0.35320  0.24560  0.69190  Biso   1.000  O
  O123     1.0000 0.30220  0.21500  0.67930  Biso   1.000  O
  O124     1.0000 0.30510  0.06800  0.75340  Biso   1.000  O
  O125     1.0000 0.23400  0.10550  0.78120  Biso   1.000  O
  O126     1.0000 0.24090  0.09670  0.72680  Biso   1.000  O
  O127     1.0000 0.42330  0.24270  0.75080  Biso   1.000  O
  O128     1.0000 0.42870  0.23480  0.72280  Biso   1.000  O
  C204     1.0000 0.38610  0.11520  0.45870  Biso   1.000  C
  C205     1.0000 0.42570  0.14640  0.44430  Biso   1.000  C
  C206     1.0000 0.42920  0.13300  0.39840  Biso   1.000  C
  C207     1.0000 0.40320  0.10380  0.37050  Biso   1.000  C
  C208     1.0000 0.36360  0.07160  0.39070  Biso   1.000  C
  C209     1.0000 0.35280  0.07720  0.43620  Biso   1.000  C
  C210     1.0000 0.46600  0.16610  0.37690  Biso   1.000  C
  C211     1.0000 0.48990  0.20970  0.38980  Biso   1.000  C
  C212     1.0000 0.52860  0.23600  0.36570  Biso   1.000  C
  C213     1.0000 0.55100  0.23070  0.32890  Biso   1.000  C
  C214     1.0000 0.52440  0.18670  0.32130  Biso   1.000  C
  C215     1.0000 0.48510  0.15540  0.34070  Biso   1.000  C
  C216     1.0000 0.32210  0.03780  0.32110  Biso   1.000  C
  C217     1.0000 0.28230  0.96070  0.36280  Biso   1.000  C
  C218     1.0000 0.29760  0.99950  0.38700  Biso   1.000  C
  C219     1.0000 0.33510  0.02920  0.36380  Biso   1.000  C
  C220     1.0000 0.36990  0.12370  0.50420  Biso   1.000  C
  C221     1.0000 0.32990  0.09850  0.52600  Biso   1.000  C
  C222     1.0000 0.32200  0.10550  0.57180  Biso   1.000  C
  C223     1.0000 0.36000  0.13400  0.59540  Biso   1.000  C
  C224     1.0000 0.38690  0.17040  0.56850  Biso   1.000  C
  C225     1.0000 0.40170  0.15340  0.53410  Biso   1.000  C
  C226     1.0000 0.35590  0.14720  0.64280  Biso   1.000  C
  C227     1.0000 0.59580  0.26150  0.31550  Biso   1.000  C
  C228     1.0000 0.32840  0.24980  0.70930  Biso   1.000  C
  C229     1.0000 0.55320  0.30340  0.72800  Biso   1.000  C
  C230     1.0000 0.51020  0.28460  0.73980  Biso   1.000  C
  C231     1.0000 0.29680  0.00070  0.29430  Biso   1.000  C
  C232     1.0000 0.27510  0.95980  0.31530  Biso   1.000  C
  Zn39     1.0000 0.29069  0.13601  0.80154  Biso   1.000  Zn
  Zn40     1.0000 0.36196  0.14001  0.73811  Biso   1.000  Zn
  Zn41     1.0000 0.72129  0.37547  0.27665  Biso   1.000  Zn
  Zn42     1.0000 0.79109  0.16291  0.70514  Biso   1.000  Zn
  Zn43     1.0000 0.88549  0.18905  0.72123  Biso   1.000  Zn
  O129     1.0000 0.87570  0.23140  0.67340  Biso   1.000  O
  O130     1.0000 0.81780  0.18360  0.65110  Biso   1.000  O
  O131     1.0000 0.85600  0.18130  0.63870  Biso   1.000  O
  O132     1.0000 0.88360  0.20290  0.65750  Biso   1.000  O
  O133     1.0000 0.74930  0.41140  0.22920  Biso   1.000  O
  O134     1.0000 0.75520  0.35810  0.29600  Biso   1.000  O
  O135     1.0000 0.70880  0.32460  0.33860  Biso   1.000  O
  O136     1.0000 0.71700  0.29600  0.31000  Biso   1.000  O
  O137     1.0000 0.75720  0.12300  0.73730  Biso   1.000  O
  O138     1.0000 0.75440  0.10760  0.69190  Biso   1.000  O
  O139     1.0000 0.78500  0.08720  0.67930  Biso   1.000  O
  O140     1.0000 0.93200  0.23710  0.75340  Biso   1.000  O
  O141     1.0000 0.89450  0.12850  0.78120  Biso   1.000  O
  O142     1.0000 0.90330  0.14420  0.72680  Biso   1.000  O
  O143     1.0000 0.75730  0.18060  0.75080  Biso   1.000  O
  O144     1.0000 0.76520  0.19390  0.72280  Biso   1.000  O
  C233     1.0000 0.88480  0.27090  0.45870  Biso   1.000  C
  C234     1.0000 0.85360  0.27930  0.44430  Biso   1.000  C
  C235     1.0000 0.86700  0.29620  0.39840  Biso   1.000  C
  C236     1.0000 0.89620  0.29940  0.37050  Biso   1.000  C
  C237     1.0000 0.92840  0.29200  0.39070  Biso   1.000  C
  C238     1.0000 0.92280  0.27560  0.43620  Biso   1.000  C
  C239     1.0000 0.83390  0.29990  0.37690  Biso   1.000  C
  C240     1.0000 0.79030  0.28020  0.38980  Biso   1.000  C
  C241     1.0000 0.76400  0.29260  0.36570  Biso   1.000  C
  C242     1.0000 0.76930  0.32030  0.32890  Biso   1.000  C
  C243     1.0000 0.81330  0.33770  0.32130  Biso   1.000  C
  C244     1.0000 0.84460  0.32970  0.34070  Biso   1.000  C
  C245     1.0000 0.96220  0.28430  0.32110  Biso   1.000  C
  C246     1.0000 0.03930  0.32160  0.36280  Biso   1.000  C
  C247     1.0000 0.00050  0.29810  0.38700  Biso   1.000  C
  C248     1.0000 0.97080  0.30590  0.36380  Biso   1.000  C
  C249     1.0000 0.87630  0.24620  0.50420  Biso   1.000  C
  C250     1.0000 0.90150  0.23140  0.52600  Biso   1.000  C
  C251     1.0000 0.89450  0.21650  0.57180  Biso   1.000  C
  C252     1.0000 0.86600  0.22600  0.59540  Biso   1.000  C
  C253     1.0000 0.82960  0.21650  0.56850  Biso   1.000  C
  C254     1.0000 0.84660  0.24830  0.53410  Biso   1.000  C
  C255     1.0000 0.85280  0.20870  0.64280  Biso   1.000  C
  C256     1.0000 0.73850  0.33430  0.31550  Biso   1.000  C
  C257     1.0000 0.75020  0.07860  0.70930  Biso   1.000  C
  C258     1.0000 0.69660  0.24980  0.72800  Biso   1.000  C
  C259     1.0000 0.71540  0.22560  0.73980  Biso   1.000  C
  C260     1.0000 0.99930  0.29610  0.29430  Biso   1.000  C
  C261     1.0000 0.04020  0.31530  0.31530  Biso   1.000  C
  Zn44     1.0000 0.86399  0.15468  0.80154  Biso   1.000  Zn
  Zn45     1.0000 0.85999  0.22195  0.73811  Biso   1.000  Zn
  Zn46     1.0000 0.65418  0.37547  0.22335  Biso   1.000  Zn
  Zn47     1.0000 0.37182  0.16291  0.79486  Biso   1.000  Zn
  Zn48     1.0000 0.30356  0.18905  0.77877  Biso   1.000  Zn
  O145     1.0000 0.35570  0.23140  0.82660  Biso   1.000  O
  O146     1.0000 0.36580  0.18360  0.84890  Biso   1.000  O
  O147     1.0000 0.32530  0.18130  0.86130  Biso   1.000  O
  O148     1.0000 0.31930  0.20290  0.84250  Biso   1.000  O
  O149     1.0000 0.66210  0.41140  0.27080  Biso   1.000  O
  O150     1.0000 0.60290  0.35810  0.20400  Biso   1.000  O
  O151     1.0000 0.61580  0.32460  0.16140  Biso   1.000  O
  O152     1.0000 0.57900  0.29600  0.19000  Biso   1.000  O
  O153     1.0000 0.36580  0.12300  0.76270  Biso   1.000  O
  O154     1.0000 0.35320  0.10760  0.80810  Biso   1.000  O
  O155     1.0000 0.30220  0.08720  0.82070  Biso   1.000  O
  O156     1.0000 0.30510  0.23710  0.74660  Biso   1.000  O
  O157     1.0000 0.23400  0.12850  0.71880  Biso   1.000  O
  O158     1.0000 0.24090  0.14420  0.77320  Biso   1.000  O
  O159     1.0000 0.42330  0.18060  0.74920  Biso   1.000  O
  O160     1.0000 0.42870  0.19390  0.77720  Biso   1.000  O
  C262     1.0000 0.38610  0.27090  0.04130  Biso   1.000  C
  C263     1.0000 0.42570  0.27930  0.05570  Biso   1.000  C
  C264     1.0000 0.42920  0.29620  0.10160  Biso   1.000  C
  C265     1.0000 0.40320  0.29940  0.12950  Biso   1.000  C
  C266     1.0000 0.36360  0.29200  0.10930  Biso   1.000  C
  C267     1.0000 0.35280  0.27560  0.06380  Biso   1.000  C
  C268     1.0000 0.46600  0.29990  0.12310  Biso   1.000  C
  C269     1.0000 0.48990  0.28020  0.11020  Biso   1.000  C
  C270     1.0000 0.52860  0.29260  0.13430  Biso   1.000  C
  C271     1.0000 0.55100  0.32030  0.17110  Biso   1.000  C
  C272     1.0000 0.52440  0.33770  0.17870  Biso   1.000  C
  C273     1.0000 0.48510  0.32970  0.15930  Biso   1.000  C
  C274     1.0000 0.32210  0.28430  0.17890  Biso   1.000  C
  C275     1.0000 0.28230  0.32160  0.13720  Biso   1.000  C
  C276     1.0000 0.29760  0.29810  0.11300  Biso   1.000  C
  C277     1.0000 0.33510  0.30590  0.13620  Biso   1.000  C
  C278     1.0000 0.36990  0.24620  0.99580  Biso   1.000  C
  C279     1.0000 0.32990  0.23140  0.97400  Biso   1.000  C
  C280     1.0000 0.32200  0.21650  0.92820  Biso   1.000  C
  C281     1.0000 0.36000  0.22600  0.90460  Biso   1.000  C
  C282     1.0000 0.38690  0.21650  0.93150  Biso   1.000  C
  C283     1.0000 0.40170  0.24830  0.96590  Biso   1.000  C
  C284     1.0000 0.35590  0.20870  0.85720  Biso   1.000  C
  C285     1.0000 0.59580  0.33430  0.18450  Biso   1.000  C
  C286     1.0000 0.32840  0.07860  0.79070  Biso   1.000  C
  C287     1.0000 0.55320  0.24980  0.77200  Biso   1.000  C
  C288     1.0000 0.51020  0.22560  0.76020  Biso   1.000  C
  C289     1.0000 0.29680  0.29610  0.20570  Biso   1.000  C
  C290     1.0000 0.27510  0.31530  0.18470  Biso   1.000  C
  Zn49     1.0000 0.29069  0.15468  0.69846  Biso   1.000  Zn
  Zn50     1.0000 0.36196  0.22195  0.76189  Biso   1.000  Zn
  Zn51     1.0000 0.72129  0.34582  0.22335  Biso   1.000  Zn
  Zn52     1.0000 0.79109  0.62818  0.79486  Biso   1.000  Zn
  Zn53     1.0000 0.88549  0.69644  0.77877  Biso   1.000  Zn
  O161     1.0000 0.87570  0.64430  0.82660  Biso   1.000  O
  O162     1.0000 0.81780  0.63420  0.84890  Biso   1.000  O
  O163     1.0000 0.85600  0.67470  0.86130  Biso   1.000  O
  O164     1.0000 0.88360  0.68070  0.84250  Biso   1.000  O
  O165     1.0000 0.74930  0.33790  0.27080  Biso   1.000  O
  O166     1.0000 0.75520  0.39710  0.20400  Biso   1.000  O
  O167     1.0000 0.70880  0.38420  0.16140  Biso   1.000  O
  O168     1.0000 0.71700  0.42100  0.19000  Biso   1.000  O
  O169     1.0000 0.75720  0.63420  0.76270  Biso   1.000  O
  O170     1.0000 0.75440  0.64680  0.80810  Biso   1.000  O
  O171     1.0000 0.78500  0.69780  0.82070  Biso   1.000  O
  O172     1.0000 0.93200  0.69490  0.74660  Biso   1.000  O
  O173     1.0000 0.89450  0.76600  0.71880  Biso   1.000  O
  O174     1.0000 0.90330  0.75910  0.77320  Biso   1.000  O
  O175     1.0000 0.75730  0.57670  0.74920  Biso   1.000  O
  O176     1.0000 0.76520  0.57130  0.77720  Biso   1.000  O
  C291     1.0000 0.88480  0.61390  0.04130  Biso   1.000  C
  C292     1.0000 0.85360  0.57430  0.05570  Biso   1.000  C
  C293     1.0000 0.86700  0.57080  0.10160  Biso   1.000  C
  C294     1.0000 0.89620  0.59680  0.12950  Biso   1.000  C
  C295     1.0000 0.92840  0.63640  0.10930  Biso   1.000  C
  C296     1.0000 0.92280  0.64720  0.06380  Biso   1.000  C
  C297     1.0000 0.83390  0.53400  0.12310  Biso   1.000  C
  C298     1.0000 0.79030  0.51010  0.11020  Biso   1.000  C
  C299     1.0000 0.76400  0.47140  0.13430  Biso   1.000  C
  C300     1.0000 0.76930  0.44900  0.17110  Biso   1.000  C
  C301     1.0000 0.81330  0.47560  0.17870  Biso   1.000  C
  C302     1.0000 0.84460  0.51490  0.15930  Biso   1.000  C
  C303     1.0000 0.96220  0.67790  0.17890  Biso   1.000  C
  C304     1.0000 0.03930  0.71770  0.13720  Biso   1.000  C
  C305     1.0000 0.00050  0.70240  0.11300  Biso   1.000  C
  C306     1.0000 0.97080  0.66490  0.13620  Biso   1.000  C
  C307     1.0000 0.87630  0.63010  0.99580  Biso   1.000  C
  C308     1.0000 0.90150  0.67010  0.97400  Biso   1.000  C
  C309     1.0000 0.89450  0.67800  0.92820  Biso   1.000  C
  C310     1.0000 0.86600  0.64000  0.90460  Biso   1.000  C
  C311     1.0000 0.82960  0.61310  0.93150  Biso   1.000  C
  C312     1.0000 0.84660  0.59830  0.96590  Biso   1.000  C
  C313     1.0000 0.85280  0.64410  0.85720  Biso   1.000  C
  C314     1.0000 0.73850  0.40420  0.18450  Biso   1.000  C
  C315     1.0000 0.75020  0.67160  0.79070  Biso   1.000  C
  C316     1.0000 0.69660  0.44680  0.77200  Biso   1.000  C
  C317     1.0000 0.71540  0.48980  0.76020  Biso   1.000  C
  C318     1.0000 0.99930  0.70320  0.20570  Biso   1.000  C
  C319     1.0000 0.04020  0.72490  0.18470  Biso   1.000  C
  Zn54     1.0000 0.86399  0.70931  0.69846  Biso   1.000  Zn
  Zn55     1.0000 0.85999  0.63804  0.76189  Biso   1.000  Zn
  Zn56     1.0000 0.62453  0.27871  0.22335  Biso   1.000  Zn
  Zn57     1.0000 0.83709  0.20891  0.79486  Biso   1.000  Zn
  Zn58     1.0000 0.81095  0.11451  0.77877  Biso   1.000  Zn
  O177     1.0000 0.76860  0.12430  0.82660  Biso   1.000  O
  O178     1.0000 0.81640  0.18220  0.84890  Biso   1.000  O
  O179     1.0000 0.81870  0.14400  0.86130  Biso   1.000  O
  O180     1.0000 0.79710  0.11640  0.84250  Biso   1.000  O
  O181     1.0000 0.58860  0.25070  0.27080  Biso   1.000  O
  O182     1.0000 0.64190  0.24480  0.20400  Biso   1.000  O
  O183     1.0000 0.67540  0.29120  0.16140  Biso   1.000  O
  O184     1.0000 0.70400  0.28300  0.19000  Biso   1.000  O
  O185     1.0000 0.87700  0.24280  0.76270  Biso   1.000  O
  O186     1.0000 0.89240  0.24560  0.80810  Biso   1.000  O
  O187     1.0000 0.91280  0.21500  0.82070  Biso   1.000  O
  O188     1.0000 0.76290  0.06800  0.74660  Biso   1.000  O
  O189     1.0000 0.87150  0.10550  0.71880  Biso   1.000  O
  O190     1.0000 0.85580  0.09670  0.77320  Biso   1.000  O
  O191     1.0000 0.81940  0.24270  0.74920  Biso   1.000  O
  O192     1.0000 0.80610  0.23480  0.77720  Biso   1.000  O
  C320     1.0000 0.72910  0.11520  0.04130  Biso   1.000  C
  C321     1.0000 0.72070  0.14640  0.05570  Biso   1.000  C
  C322     1.0000 0.70380  0.13300  0.10160  Biso   1.000  C
  C323     1.0000 0.70060  0.10380  0.12950  Biso   1.000  C
  C324     1.0000 0.70800  0.07160  0.10930  Biso   1.000  C
  C325     1.0000 0.72440  0.07720  0.06380  Biso   1.000  C
  C326     1.0000 0.70010  0.16610  0.12310  Biso   1.000  C
  C327     1.0000 0.71980  0.20970  0.11020  Biso   1.000  C
  C328     1.0000 0.70740  0.23600  0.13430  Biso   1.000  C
  C329     1.0000 0.67970  0.23070  0.17110  Biso   1.000  C
  C330     1.0000 0.66230  0.18670  0.17870  Biso   1.000  C
  C331     1.0000 0.67030  0.15540  0.15930  Biso   1.000  C
  C332     1.0000 0.71570  0.03780  0.17890  Biso   1.000  C
  C333     1.0000 0.67840  0.96070  0.13720  Biso   1.000  C
  C334     1.0000 0.70190  0.99950  0.11300  Biso   1.000  C
  C335     1.0000 0.69410  0.02920  0.13620  Biso   1.000  C
  C336     1.0000 0.75380  0.12370  0.99580  Biso   1.000  C
  C337     1.0000 0.76860  0.09850  0.97400  Biso   1.000  C
  C338     1.0000 0.78350  0.10550  0.92820  Biso   1.000  C
  C339     1.0000 0.77400  0.13400  0.90460  Biso   1.000  C
  C340     1.0000 0.78350  0.17040  0.93150  Biso   1.000  C
  C341     1.0000 0.75170  0.15340  0.96590  Biso   1.000  C
  C342     1.0000 0.79130  0.14720  0.85720  Biso   1.000  C
  C343     1.0000 0.66570  0.26150  0.18450  Biso   1.000  C
  C344     1.0000 0.92140  0.24980  0.79070  Biso   1.000  C
  C345     1.0000 0.75020  0.30340  0.77200  Biso   1.000  C
  C346     1.0000 0.77440  0.28460  0.76020  Biso   1.000  C
  C347     1.0000 0.70390  0.00070  0.20570  Biso   1.000  C
  C348     1.0000 0.68470  0.95980  0.18470  Biso   1.000  C
  Zn59     1.0000 0.84532  0.13601  0.69846  Biso   1.000  Zn
  Zn60     1.0000 0.77805  0.14001  0.76189  Biso   1.000  Zn
  Zn61     1.0000 0.33333  0.66667  0.69103  Biso   1.000  Zn
  Zn62     1.0000 0.33333  0.66667  0.80897  Biso   1.000  Zn
  Zn63     1.0000 0.66667  0.33333  0.30897  Biso   1.000  Zn
  Zn64     1.0000 0.66667  0.33333  0.19103  Biso   1.000  Zn
  O193     1.0000 0.16635  0.33270  0.25000  Biso   1.000  O
  C349     1.0000 0.11195  0.22390  0.25000  Biso   1.000  C
  C350     1.0000 0.31210  0.62420  0.25000  Biso   1.000  C
  C351     1.0000 0.28725  0.57450  0.25000  Biso   1.000  C
  C352     1.0000 0.24540  0.49080  0.25000  Biso   1.000  C
  C353     1.0000 0.22175  0.44350  0.25000  Biso   1.000  C
  O194     1.0000 0.66730  0.83365  0.25000  Biso   1.000  O
  C354     1.0000 0.77610  0.88805  0.25000  Biso   1.000  C
  C355     1.0000 0.37580  0.68790  0.25000  Biso   1.000  C
  C356     1.0000 0.42550  0.71275  0.25000  Biso   1.000  C
  C357     1.0000 0.50920  0.75460  0.25000  Biso   1.000  C
  C358     1.0000 0.55650  0.77825  0.25000  Biso   1.000  C
  O195     1.0000 0.16635  0.83365  0.25000  Biso   1.000  O
  C359     1.0000 0.11195  0.88805  0.25000  Biso   1.000  C
  C360     1.0000 0.31210  0.68790  0.25000  Biso   1.000  C
  C361     1.0000 0.28725  0.71275  0.25000  Biso   1.000  C
  C362     1.0000 0.24540  0.75460  0.25000  Biso   1.000  C
  C363     1.0000 0.22175  0.77825  0.25000  Biso   1.000  C
  O196     1.0000 0.83365  0.66730  0.75000  Biso   1.000  O
  C364     1.0000 0.88805  0.77610  0.75000  Biso   1.000  C
  C365     1.0000 0.68790  0.37580  0.75000  Biso   1.000  C
  C366     1.0000 0.71275  0.42550  0.75000  Biso   1.000  C
  C367     1.0000 0.75460  0.50920  0.75000  Biso   1.000  C
  C368     1.0000 0.77825  0.55650  0.75000  Biso   1.000  C
  O197     1.0000 0.33270  0.16635  0.75000  Biso   1.000  O
  C369     1.0000 0.22390  0.11195  0.75000  Biso   1.000  C
  C370     1.0000 0.62420  0.31210  0.75000  Biso   1.000  C
  C371     1.0000 0.57450  0.28725  0.75000  Biso   1.000  C
  C372     1.0000 0.49080  0.24540  0.75000  Biso   1.000  C
  C373     1.0000 0.44350  0.22175  0.75000  Biso   1.000  C
  O198     1.0000 0.83365  0.16635  0.75000  Biso   1.000  O
  C374     1.0000 0.88805  0.11195  0.75000  Biso   1.000  C
  C375     1.0000 0.68790  0.31210  0.75000  Biso   1.000  C
  C376     1.0000 0.71275  0.28725  0.75000  Biso   1.000  C
  C377     1.0000 0.75460  0.24540  0.75000  Biso   1.000  C
  C378     1.0000 0.77825  0.22175  0.75000  Biso   1.000  C
  O199     1.0000 0.33333  0.66667  0.75000  Biso   1.000  O
  O200     1.0000 0.66667  0.33333  0.25000  Biso   1.000  O
  C379     1.0000 0.28880  0.64440  0.25000  Biso   1.000  C
  C380     1.0000 0.35560  0.64440  0.25000  Biso   1.000  C
  C381     1.0000 0.35560  0.71120  0.25000  Biso   1.000  C
  C382     1.0000 0.71120  0.35560  0.75000  Biso   1.000  C
  C383     1.0000 0.64440  0.35560  0.75000  Biso   1.000  C
  C384     1.0000 0.64440  0.28880  0.75000  Biso   1.000  C
