data_image0
_cell_length_a       29.627
_cell_length_b       29.627
_cell_length_c       29.627
_cell_angle_alpha    90
_cell_angle_beta     90
_cell_angle_gamma    90

_symmetry_space_group_name_H-M    "P 1"
_symmetry_int_tables_number       1

loop_
  _symmetry_equiv_pos_as_xyz
  'x, y, z'

loop_
  _atom_site_label
  _atom_site_occupancy
  _atom_site_fract_x
  _atom_site_fract_y
  _atom_site_fract_z
  _atom_site_thermal_displace_type
  _atom_site_B_iso_or_equiv
  _atom_site_type_symbol
  O1       1.0000 0.28020  0.06090  0.39610  Biso   1.000  O
  O2       1.0000 0.27060  0.04690  0.04640  Biso   1.000  O
  O3       1.0000 0.34660  0.04620  0.04580  Biso   1.000  O
  O4       1.0000 0.22920  0.16370  0.21810  Biso   1.000  O
  O5       1.0000 0.18980  0.12450  0.16700  Biso   1.000  O
  O6       1.0000 0.18690  0.12060  0.28810  Biso   1.000  O
  O7       1.0000 0.14770  0.08110  0.23560  Biso   1.000  O
  O8       1.0000 0.43820  0.15120  0.12360  Biso   1.000  O
  N1       1.0000 0.39120  0.15370  0.17030  Biso   1.000  N
  H1       1.0000 0.23660  0.97430  0.41150  Biso   1.000  H
  C1       1.0000 0.30860  0.05880  0.06030  Biso   1.000  C
  C2       1.0000 0.30890  0.09280  0.09880  Biso   1.000  C
  C3       1.0000 0.26840  0.10270  0.12070  Biso   1.000  C
  H2       1.0000 0.24130  0.09110  0.11000  Biso   1.000  H
  C4       1.0000 0.26950  0.13050  0.15890  Biso   1.000  C
  C5       1.0000 0.30960  0.14720  0.17480  Biso   1.000  C
  H3       1.0000 0.30980  0.16580  0.20000  Biso   1.000  H
  C6       1.0000 0.34970  0.13650  0.15350  Biso   1.000  C
  C7       1.0000 0.42990  0.15670  0.16340  Biso   1.000  C
  C8       1.0000 0.46080  0.19450  0.24180  Biso   1.000  C
  H4       1.0000 0.43320  0.20070  0.25550  Biso   1.000  H
  C9       1.0000 0.46220  0.17050  0.20110  Biso   1.000  C
  C10      1.0000 0.22640  0.14030  0.18350  Biso   1.000  C
  C11      1.0000 0.17150  0.08390  0.27060  Biso   1.000  C
  C12      1.0000 0.18230  0.04040  0.29410  Biso   1.000  C
  C13      1.0000 0.20600  0.04090  0.33490  Biso   1.000  C
  H5       1.0000 0.21420  0.06810  0.34830  Biso   1.000  H
  C14      1.0000 0.34960  0.10850  0.11580  Biso   1.000  C
  H6       1.0000 0.37660  0.10040  0.10210  Biso   1.000  H
  C15      1.0000 0.27000  0.02620  0.41820  Biso   1.000  C
  H7       1.0000 0.46950  0.24150  0.31230  Biso   1.000  H
  H8       1.0000 0.51620  0.26270  0.29930  Biso   1.000  H
  H9       1.0000 0.51440  0.21770  0.32700  Biso   1.000  H
  H10      1.0000 0.41720  0.02680  0.48530  Biso   1.000  H
  O9       1.0000 0.38340  0.13850  0.23370  Biso   1.000  O
  C16      1.0000 0.40530  0.15520  0.20210  Biso   1.000  C
  O10      1.0000 0.78020  0.56090  0.89610  Biso   1.000  O
  O11      1.0000 0.77060  0.54690  0.54640  Biso   1.000  O
  O12      1.0000 0.84660  0.54620  0.54580  Biso   1.000  O
  O13      1.0000 0.72920  0.66370  0.71810  Biso   1.000  O
  O14      1.0000 0.68980  0.62450  0.66700  Biso   1.000  O
  O15      1.0000 0.68690  0.62060  0.78810  Biso   1.000  O
  O16      1.0000 0.64770  0.58110  0.73560  Biso   1.000  O
  O17      1.0000 0.93820  0.65120  0.62360  Biso   1.000  O
  N2       1.0000 0.89120  0.65370  0.67030  Biso   1.000  N
  H11      1.0000 0.73660  0.47430  0.91150  Biso   1.000  H
  C17      1.0000 0.80860  0.55880  0.56030  Biso   1.000  C
  C18      1.0000 0.80890  0.59280  0.59880  Biso   1.000  C
  C19      1.0000 0.76840  0.60270  0.62070  Biso   1.000  C
  H12      1.0000 0.74130  0.59110  0.61000  Biso   1.000  H
  C20      1.0000 0.76950  0.63050  0.65890  Biso   1.000  C
  C21      1.0000 0.80960  0.64720  0.67480  Biso   1.000  C
  H13      1.0000 0.80980  0.66580  0.70000  Biso   1.000  H
  C22      1.0000 0.84970  0.63650  0.65350  Biso   1.000  C
  C23      1.0000 0.92990  0.65670  0.66340  Biso   1.000  C
  C24      1.0000 0.96080  0.69450  0.74180  Biso   1.000  C
  H14      1.0000 0.93320  0.70070  0.75550  Biso   1.000  H
  C25      1.0000 0.96220  0.67050  0.70110  Biso   1.000  C
  C26      1.0000 0.72640  0.64030  0.68350  Biso   1.000  C
  C27      1.0000 0.67150  0.58390  0.77060  Biso   1.000  C
  C28      1.0000 0.68230  0.54040  0.79410  Biso   1.000  C
  C29      1.0000 0.70600  0.54090  0.83490  Biso   1.000  C
  H15      1.0000 0.71420  0.56810  0.84830  Biso   1.000  H
  C30      1.0000 0.84960  0.60850  0.61580  Biso   1.000  C
  H16      1.0000 0.87660  0.60040  0.60210  Biso   1.000  H
  C31      1.0000 0.77000  0.52620  0.91820  Biso   1.000  C
  H17      1.0000 0.96950  0.74150  0.81230  Biso   1.000  H
  H18      1.0000 0.01620  0.76270  0.79930  Biso   1.000  H
  H19      1.0000 0.01440  0.71770  0.82700  Biso   1.000  H
  H20      1.0000 0.91720  0.52680  0.98530  Biso   1.000  H
  O18      1.0000 0.88340  0.63850  0.73370  Biso   1.000  O
  C32      1.0000 0.90530  0.65520  0.70210  Biso   1.000  C
  O19      1.0000 0.71980  0.93910  0.39610  Biso   1.000  O
  O20      1.0000 0.72940  0.95310  0.04640  Biso   1.000  O
  O21      1.0000 0.65340  0.95380  0.04580  Biso   1.000  O
  O22      1.0000 0.77080  0.83630  0.21810  Biso   1.000  O
  O23      1.0000 0.81020  0.87550  0.16700  Biso   1.000  O
  O24      1.0000 0.81310  0.87940  0.28810  Biso   1.000  O
  O25      1.0000 0.85230  0.91890  0.23560  Biso   1.000  O
  O26      1.0000 0.56180  0.84880  0.12360  Biso   1.000  O
  N3       1.0000 0.60880  0.84630  0.17030  Biso   1.000  N
  H21      1.0000 0.76340  0.02570  0.41150  Biso   1.000  H
  C33      1.0000 0.69140  0.94120  0.06030  Biso   1.000  C
  C34      1.0000 0.69110  0.90720  0.09880  Biso   1.000  C
  C35      1.0000 0.73160  0.89730  0.12070  Biso   1.000  C
  H22      1.0000 0.75870  0.90890  0.11000  Biso   1.000  H
  C36      1.0000 0.73050  0.86950  0.15890  Biso   1.000  C
  C37      1.0000 0.69040  0.85280  0.17480  Biso   1.000  C
  H23      1.0000 0.69020  0.83420  0.20000  Biso   1.000  H
  C38      1.0000 0.65030  0.86350  0.15350  Biso   1.000  C
  C39      1.0000 0.57010  0.84330  0.16340  Biso   1.000  C
  C40      1.0000 0.53920  0.80550  0.24180  Biso   1.000  C
  H24      1.0000 0.56680  0.79930  0.25550  Biso   1.000  H
  C41      1.0000 0.53780  0.82950  0.20110  Biso   1.000  C
  C42      1.0000 0.77360  0.85970  0.18350  Biso   1.000  C
  C43      1.0000 0.82850  0.91610  0.27060  Biso   1.000  C
  C44      1.0000 0.81770  0.95960  0.29410  Biso   1.000  C
  C45      1.0000 0.79400  0.95910  0.33490  Biso   1.000  C
  H25      1.0000 0.78580  0.93190  0.34830  Biso   1.000  H
  C46      1.0000 0.65040  0.89150  0.11580  Biso   1.000  C
  H26      1.0000 0.62340  0.89960  0.10210  Biso   1.000  H
  C47      1.0000 0.73000  0.97380  0.41820  Biso   1.000  C
  H27      1.0000 0.53050  0.75850  0.31230  Biso   1.000  H
  H28      1.0000 0.48380  0.73730  0.29930  Biso   1.000  H
  H29      1.0000 0.48560  0.78230  0.32700  Biso   1.000  H
  H30      1.0000 0.58280  0.97320  0.48530  Biso   1.000  H
  O27      1.0000 0.61660  0.86150  0.23370  Biso   1.000  O
  C48      1.0000 0.59470  0.84480  0.20210  Biso   1.000  C
  O28      1.0000 0.21980  0.43910  0.89610  Biso   1.000  O
  O29      1.0000 0.22940  0.45310  0.54640  Biso   1.000  O
  O30      1.0000 0.15340  0.45380  0.54580  Biso   1.000  O
  O31      1.0000 0.27080  0.33630  0.71810  Biso   1.000  O
  O32      1.0000 0.31020  0.37550  0.66700  Biso   1.000  O
  O33      1.0000 0.31310  0.37940  0.78810  Biso   1.000  O
  O34      1.0000 0.35230  0.41890  0.73560  Biso   1.000  O
  O35      1.0000 0.06180  0.34880  0.62360  Biso   1.000  O
  N4       1.0000 0.10880  0.34630  0.67030  Biso   1.000  N
  H31      1.0000 0.26340  0.52570  0.91150  Biso   1.000  H
  C49      1.0000 0.19140  0.44120  0.56030  Biso   1.000  C
  C50      1.0000 0.19110  0.40720  0.59880  Biso   1.000  C
  C51      1.0000 0.23160  0.39730  0.62070  Biso   1.000  C
  H32      1.0000 0.25870  0.40890  0.61000  Biso   1.000  H
  C52      1.0000 0.23050  0.36950  0.65890  Biso   1.000  C
  C53      1.0000 0.19040  0.35280  0.67480  Biso   1.000  C
  H33      1.0000 0.19020  0.33420  0.70000  Biso   1.000  H
  C54      1.0000 0.15030  0.36350  0.65350  Biso   1.000  C
  C55      1.0000 0.07010  0.34330  0.66340  Biso   1.000  C
  C56      1.0000 0.03920  0.30550  0.74180  Biso   1.000  C
  H34      1.0000 0.06680  0.29930  0.75550  Biso   1.000  H
  C57      1.0000 0.03780  0.32950  0.70110  Biso   1.000  C
  C58      1.0000 0.27360  0.35970  0.68350  Biso   1.000  C
  C59      1.0000 0.32850  0.41610  0.77060  Biso   1.000  C
  C60      1.0000 0.31770  0.45960  0.79410  Biso   1.000  C
  C61      1.0000 0.29400  0.45910  0.83490  Biso   1.000  C
  H35      1.0000 0.28580  0.43190  0.84830  Biso   1.000  H
  C62      1.0000 0.15040  0.39150  0.61580  Biso   1.000  C
  H36      1.0000 0.12340  0.39960  0.60210  Biso   1.000  H
  C63      1.0000 0.23000  0.47380  0.91820  Biso   1.000  C
  H37      1.0000 0.03050  0.25850  0.81230  Biso   1.000  H
  H38      1.0000 0.98380  0.23730  0.79930  Biso   1.000  H
  H39      1.0000 0.98560  0.28230  0.82700  Biso   1.000  H
  H40      1.0000 0.08280  0.47320  0.98530  Biso   1.000  H
  O36      1.0000 0.11660  0.36150  0.73370  Biso   1.000  O
  C64      1.0000 0.09470  0.34480  0.70210  Biso   1.000  C
  O37      1.0000 0.93910  0.28020  0.39610  Biso   1.000  O
  O38      1.0000 0.95310  0.27060  0.04640  Biso   1.000  O
  O39      1.0000 0.95380  0.34660  0.04580  Biso   1.000  O
  O40      1.0000 0.83630  0.22920  0.21810  Biso   1.000  O
  O41      1.0000 0.87550  0.18980  0.16700  Biso   1.000  O
  O42      1.0000 0.87940  0.18690  0.28810  Biso   1.000  O
  O43      1.0000 0.91890  0.14770  0.23560  Biso   1.000  O
  O44      1.0000 0.84880  0.43820  0.12360  Biso   1.000  O
  N5       1.0000 0.84630  0.39120  0.17030  Biso   1.000  N
  H41      1.0000 0.02570  0.23660  0.41150  Biso   1.000  H
  C65      1.0000 0.94120  0.30860  0.06030  Biso   1.000  C
  C66      1.0000 0.90720  0.30890  0.09880  Biso   1.000  C
  C67      1.0000 0.89730  0.26840  0.12070  Biso   1.000  C
  H42      1.0000 0.90890  0.24130  0.11000  Biso   1.000  H
  C68      1.0000 0.86950  0.26950  0.15890  Biso   1.000  C
  C69      1.0000 0.85280  0.30960  0.17480  Biso   1.000  C
  H43      1.0000 0.83420  0.30980  0.20000  Biso   1.000  H
  C70      1.0000 0.86350  0.34970  0.15350  Biso   1.000  C
  C71      1.0000 0.84330  0.42990  0.16340  Biso   1.000  C
  C72      1.0000 0.80550  0.46080  0.24180  Biso   1.000  C
  H44      1.0000 0.79930  0.43320  0.25550  Biso   1.000  H
  C73      1.0000 0.82950  0.46220  0.20110  Biso   1.000  C
  C74      1.0000 0.85970  0.22640  0.18350  Biso   1.000  C
  C75      1.0000 0.91610  0.17150  0.27060  Biso   1.000  C
  C76      1.0000 0.95960  0.18230  0.29410  Biso   1.000  C
  C77      1.0000 0.95910  0.20600  0.33490  Biso   1.000  C
  H45      1.0000 0.93190  0.21420  0.34830  Biso   1.000  H
  C78      1.0000 0.89150  0.34960  0.11580  Biso   1.000  C
  H46      1.0000 0.89960  0.37660  0.10210  Biso   1.000  H
  C79      1.0000 0.97380  0.27000  0.41820  Biso   1.000  C
  H47      1.0000 0.75850  0.46950  0.31230  Biso   1.000  H
  H48      1.0000 0.73730  0.51620  0.29930  Biso   1.000  H
  H49      1.0000 0.78230  0.51440  0.32700  Biso   1.000  H
  H50      1.0000 0.97320  0.41720  0.48530  Biso   1.000  H
  O45      1.0000 0.86150  0.38340  0.23370  Biso   1.000  O
  C80      1.0000 0.84480  0.40530  0.20210  Biso   1.000  C
  O46      1.0000 0.43910  0.78020  0.89610  Biso   1.000  O
  O47      1.0000 0.45310  0.77060  0.54640  Biso   1.000  O
  O48      1.0000 0.45380  0.84660  0.54580  Biso   1.000  O
  O49      1.0000 0.33630  0.72920  0.71810  Biso   1.000  O
  O50      1.0000 0.37550  0.68980  0.66700  Biso   1.000  O
  O51      1.0000 0.37940  0.68690  0.78810  Biso   1.000  O
  O52      1.0000 0.41890  0.64770  0.73560  Biso   1.000  O
  O53      1.0000 0.34880  0.93820  0.62360  Biso   1.000  O
  N6       1.0000 0.34630  0.89120  0.67030  Biso   1.000  N
  H51      1.0000 0.52570  0.73660  0.91150  Biso   1.000  H
  C81      1.0000 0.44120  0.80860  0.56030  Biso   1.000  C
  C82      1.0000 0.40720  0.80890  0.59880  Biso   1.000  C
  C83      1.0000 0.39730  0.76840  0.62070  Biso   1.000  C
  H52      1.0000 0.40890  0.74130  0.61000  Biso   1.000  H
  C84      1.0000 0.36950  0.76950  0.65890  Biso   1.000  C
  C85      1.0000 0.35280  0.80960  0.67480  Biso   1.000  C
  H53      1.0000 0.33420  0.80980  0.70000  Biso   1.000  H
  C86      1.0000 0.36350  0.84970  0.65350  Biso   1.000  C
  C87      1.0000 0.34330  0.92990  0.66340  Biso   1.000  C
  C88      1.0000 0.30550  0.96080  0.74180  Biso   1.000  C
  H54      1.0000 0.29930  0.93320  0.75550  Biso   1.000  H
  C89      1.0000 0.32950  0.96220  0.70110  Biso   1.000  C
  C90      1.0000 0.35970  0.72640  0.68350  Biso   1.000  C
  C91      1.0000 0.41610  0.67150  0.77060  Biso   1.000  C
  C92      1.0000 0.45960  0.68230  0.79410  Biso   1.000  C
  C93      1.0000 0.45910  0.70600  0.83490  Biso   1.000  C
  H55      1.0000 0.43190  0.71420  0.84830  Biso   1.000  H
  C94      1.0000 0.39150  0.84960  0.61580  Biso   1.000  C
  H56      1.0000 0.39960  0.87660  0.60210  Biso   1.000  H
  C95      1.0000 0.47380  0.77000  0.91820  Biso   1.000  C
  H57      1.0000 0.25850  0.96950  0.81230  Biso   1.000  H
  H58      1.0000 0.23730  0.01620  0.79930  Biso   1.000  H
  H59      1.0000 0.28230  0.01440  0.82700  Biso   1.000  H
  H60      1.0000 0.47320  0.91720  0.98530  Biso   1.000  H
  O54      1.0000 0.36150  0.88340  0.73370  Biso   1.000  O
  C96      1.0000 0.34480  0.90530  0.70210  Biso   1.000  C
  O55      1.0000 0.06090  0.71980  0.39610  Biso   1.000  O
  O56      1.0000 0.04690  0.72940  0.04640  Biso   1.000  O
  O57      1.0000 0.04620  0.65340  0.04580  Biso   1.000  O
  O58      1.0000 0.16370  0.77080  0.21810  Biso   1.000  O
  O59      1.0000 0.12450  0.81020  0.16700  Biso   1.000  O
  O60      1.0000 0.12060  0.81310  0.28810  Biso   1.000  O
  O61      1.0000 0.08110  0.85230  0.23560  Biso   1.000  O
  O62      1.0000 0.15120  0.56180  0.12360  Biso   1.000  O
  N7       1.0000 0.15370  0.60880  0.17030  Biso   1.000  N
  H61      1.0000 0.97430  0.76340  0.41150  Biso   1.000  H
  C97      1.0000 0.05880  0.69140  0.06030  Biso   1.000  C
  C98      1.0000 0.09280  0.69110  0.09880  Biso   1.000  C
  C99      1.0000 0.10270  0.73160  0.12070  Biso   1.000  C
  H62      1.0000 0.09110  0.75870  0.11000  Biso   1.000  H
  C100     1.0000 0.13050  0.73050  0.15890  Biso   1.000  C
  C101     1.0000 0.14720  0.69040  0.17480  Biso   1.000  C
  H63      1.0000 0.16580  0.69020  0.20000  Biso   1.000  H
  C102     1.0000 0.13650  0.65030  0.15350  Biso   1.000  C
  C103     1.0000 0.15670  0.57010  0.16340  Biso   1.000  C
  C104     1.0000 0.19450  0.53920  0.24180  Biso   1.000  C
  H64      1.0000 0.20070  0.56680  0.25550  Biso   1.000  H
  C105     1.0000 0.17050  0.53780  0.20110  Biso   1.000  C
  C106     1.0000 0.14030  0.77360  0.18350  Biso   1.000  C
  C107     1.0000 0.08390  0.82850  0.27060  Biso   1.000  C
  C108     1.0000 0.04040  0.81770  0.29410  Biso   1.000  C
  C109     1.0000 0.04090  0.79400  0.33490  Biso   1.000  C
  H65      1.0000 0.06810  0.78580  0.34830  Biso   1.000  H
  C110     1.0000 0.10850  0.65040  0.11580  Biso   1.000  C
  H66      1.0000 0.10040  0.62340  0.10210  Biso   1.000  H
  C111     1.0000 0.02620  0.73000  0.41820  Biso   1.000  C
  H67      1.0000 0.24150  0.53050  0.31230  Biso   1.000  H
  H68      1.0000 0.26270  0.48380  0.29930  Biso   1.000  H
  H69      1.0000 0.21770  0.48560  0.32700  Biso   1.000  H
  H70      1.0000 0.02680  0.58280  0.48530  Biso   1.000  H
  O63      1.0000 0.13850  0.61660  0.23370  Biso   1.000  O
  C112     1.0000 0.15520  0.59470  0.20210  Biso   1.000  C
  O64      1.0000 0.56090  0.21980  0.89610  Biso   1.000  O
  O65      1.0000 0.54690  0.22940  0.54640  Biso   1.000  O
  O66      1.0000 0.54620  0.15340  0.54580  Biso   1.000  O
  O67      1.0000 0.66370  0.27080  0.71810  Biso   1.000  O
  O68      1.0000 0.62450  0.31020  0.66700  Biso   1.000  O
  O69      1.0000 0.62060  0.31310  0.78810  Biso   1.000  O
  O70      1.0000 0.58110  0.35230  0.73560  Biso   1.000  O
  O71      1.0000 0.65120  0.06180  0.62360  Biso   1.000  O
  N8       1.0000 0.65370  0.10880  0.67030  Biso   1.000  N
  H71      1.0000 0.47430  0.26340  0.91150  Biso   1.000  H
  C113     1.0000 0.55880  0.19140  0.56030  Biso   1.000  C
  C114     1.0000 0.59280  0.19110  0.59880  Biso   1.000  C
  C115     1.0000 0.60270  0.23160  0.62070  Biso   1.000  C
  H72      1.0000 0.59110  0.25870  0.61000  Biso   1.000  H
  C116     1.0000 0.63050  0.23050  0.65890  Biso   1.000  C
  C117     1.0000 0.64720  0.19040  0.67480  Biso   1.000  C
  H73      1.0000 0.66580  0.19020  0.70000  Biso   1.000  H
  C118     1.0000 0.63650  0.15030  0.65350  Biso   1.000  C
  C119     1.0000 0.65670  0.07010  0.66340  Biso   1.000  C
  C120     1.0000 0.69450  0.03920  0.74180  Biso   1.000  C
  H74      1.0000 0.70070  0.06680  0.75550  Biso   1.000  H
  C121     1.0000 0.67050  0.03780  0.70110  Biso   1.000  C
  C122     1.0000 0.64030  0.27360  0.68350  Biso   1.000  C
  C123     1.0000 0.58390  0.32850  0.77060  Biso   1.000  C
  C124     1.0000 0.54040  0.31770  0.79410  Biso   1.000  C
  C125     1.0000 0.54090  0.29400  0.83490  Biso   1.000  C
  H75      1.0000 0.56810  0.28580  0.84830  Biso   1.000  H
  C126     1.0000 0.60850  0.15040  0.61580  Biso   1.000  C
  H76      1.0000 0.60040  0.12340  0.60210  Biso   1.000  H
  C127     1.0000 0.52620  0.23000  0.91820  Biso   1.000  C
  H77      1.0000 0.74150  0.03050  0.81230  Biso   1.000  H
  H78      1.0000 0.76270  0.98380  0.79930  Biso   1.000  H
  H79      1.0000 0.71770  0.98560  0.82700  Biso   1.000  H
  H80      1.0000 0.52680  0.08280  0.98530  Biso   1.000  H
  O72      1.0000 0.63850  0.11660  0.73370  Biso   1.000  O
  C128     1.0000 0.65520  0.09470  0.70210  Biso   1.000  C
  O73      1.0000 0.71980  0.06090  0.60390  Biso   1.000  O
  O74      1.0000 0.72940  0.04690  0.95360  Biso   1.000  O
  O75      1.0000 0.65340  0.04620  0.95420  Biso   1.000  O
  O76      1.0000 0.77080  0.16370  0.78190  Biso   1.000  O
  O77      1.0000 0.81020  0.12450  0.83300  Biso   1.000  O
  O78      1.0000 0.81310  0.12060  0.71190  Biso   1.000  O
  O79      1.0000 0.85230  0.08110  0.76440  Biso   1.000  O
  O80      1.0000 0.56180  0.15120  0.87640  Biso   1.000  O
  N9       1.0000 0.60880  0.15370  0.82970  Biso   1.000  N
  H81      1.0000 0.76340  0.97430  0.58850  Biso   1.000  H
  C129     1.0000 0.69140  0.05880  0.93970  Biso   1.000  C
  C130     1.0000 0.69110  0.09280  0.90120  Biso   1.000  C
  C131     1.0000 0.73160  0.10270  0.87930  Biso   1.000  C
  H82      1.0000 0.75870  0.09110  0.89000  Biso   1.000  H
  C132     1.0000 0.73050  0.13050  0.84110  Biso   1.000  C
  C133     1.0000 0.69040  0.14720  0.82520  Biso   1.000  C
  H83      1.0000 0.69020  0.16580  0.80000  Biso   1.000  H
  C134     1.0000 0.65030  0.13650  0.84650  Biso   1.000  C
  C135     1.0000 0.57010  0.15670  0.83660  Biso   1.000  C
  C136     1.0000 0.53920  0.19450  0.75820  Biso   1.000  C
  H84      1.0000 0.56680  0.20070  0.74450  Biso   1.000  H
  C137     1.0000 0.53780  0.17050  0.79890  Biso   1.000  C
  C138     1.0000 0.77360  0.14030  0.81650  Biso   1.000  C
  C139     1.0000 0.82850  0.08390  0.72940  Biso   1.000  C
  C140     1.0000 0.81770  0.04040  0.70590  Biso   1.000  C
  C141     1.0000 0.79400  0.04090  0.66510  Biso   1.000  C
  H85      1.0000 0.78580  0.06810  0.65170  Biso   1.000  H
  C142     1.0000 0.65040  0.10850  0.88420  Biso   1.000  C
  H86      1.0000 0.62340  0.10040  0.89790  Biso   1.000  H
  C143     1.0000 0.73000  0.02620  0.58180  Biso   1.000  C
  H87      1.0000 0.53050  0.24150  0.68770  Biso   1.000  H
  H88      1.0000 0.48380  0.26270  0.70070  Biso   1.000  H
  H89      1.0000 0.48560  0.21770  0.67300  Biso   1.000  H
  H90      1.0000 0.58280  0.02680  0.51470  Biso   1.000  H
  O81      1.0000 0.61660  0.13850  0.76630  Biso   1.000  O
  C144     1.0000 0.59470  0.15520  0.79790  Biso   1.000  C
  O82      1.0000 0.21980  0.56090  0.10390  Biso   1.000  O
  O83      1.0000 0.22940  0.54690  0.45360  Biso   1.000  O
  O84      1.0000 0.15340  0.54620  0.45420  Biso   1.000  O
  O85      1.0000 0.27080  0.66370  0.28190  Biso   1.000  O
  O86      1.0000 0.31020  0.62450  0.33300  Biso   1.000  O
  O87      1.0000 0.31310  0.62060  0.21190  Biso   1.000  O
  O88      1.0000 0.35230  0.58110  0.26440  Biso   1.000  O
  O89      1.0000 0.06180  0.65120  0.37640  Biso   1.000  O
  N10      1.0000 0.10880  0.65370  0.32970  Biso   1.000  N
  H91      1.0000 0.26340  0.47430  0.08850  Biso   1.000  H
  C145     1.0000 0.19140  0.55880  0.43970  Biso   1.000  C
  C146     1.0000 0.19110  0.59280  0.40120  Biso   1.000  C
  C147     1.0000 0.23160  0.60270  0.37930  Biso   1.000  C
  H92      1.0000 0.25870  0.59110  0.39000  Biso   1.000  H
  C148     1.0000 0.23050  0.63050  0.34110  Biso   1.000  C
  C149     1.0000 0.19040  0.64720  0.32520  Biso   1.000  C
  H93      1.0000 0.19020  0.66580  0.30000  Biso   1.000  H
  C150     1.0000 0.15030  0.63650  0.34650  Biso   1.000  C
  C151     1.0000 0.07010  0.65670  0.33660  Biso   1.000  C
  C152     1.0000 0.03920  0.69450  0.25820  Biso   1.000  C
  H94      1.0000 0.06680  0.70070  0.24450  Biso   1.000  H
  C153     1.0000 0.03780  0.67050  0.29890  Biso   1.000  C
  C154     1.0000 0.27360  0.64030  0.31650  Biso   1.000  C
  C155     1.0000 0.32850  0.58390  0.22940  Biso   1.000  C
  C156     1.0000 0.31770  0.54040  0.20590  Biso   1.000  C
  C157     1.0000 0.29400  0.54090  0.16510  Biso   1.000  C
  H95      1.0000 0.28580  0.56810  0.15170  Biso   1.000  H
  C158     1.0000 0.15040  0.60850  0.38420  Biso   1.000  C
  H96      1.0000 0.12340  0.60040  0.39790  Biso   1.000  H
  C159     1.0000 0.23000  0.52620  0.08180  Biso   1.000  C
  H97      1.0000 0.03050  0.74150  0.18770  Biso   1.000  H
  H98      1.0000 0.98380  0.76270  0.20070  Biso   1.000  H
  H99      1.0000 0.98560  0.71770  0.17300  Biso   1.000  H
  H100     1.0000 0.08280  0.52680  0.01470  Biso   1.000  H
  O90      1.0000 0.11660  0.63850  0.26630  Biso   1.000  O
  C160     1.0000 0.09470  0.65520  0.29790  Biso   1.000  C
  O91      1.0000 0.28020  0.93910  0.60390  Biso   1.000  O
  O92      1.0000 0.27060  0.95310  0.95360  Biso   1.000  O
  O93      1.0000 0.34660  0.95380  0.95420  Biso   1.000  O
  O94      1.0000 0.22920  0.83630  0.78190  Biso   1.000  O
  O95      1.0000 0.18980  0.87550  0.83300  Biso   1.000  O
  O96      1.0000 0.18690  0.87940  0.71190  Biso   1.000  O
  O97      1.0000 0.14770  0.91890  0.76440  Biso   1.000  O
  O98      1.0000 0.43820  0.84880  0.87640  Biso   1.000  O
  N11      1.0000 0.39120  0.84630  0.82970  Biso   1.000  N
  H101     1.0000 0.23660  0.02570  0.58850  Biso   1.000  H
  C161     1.0000 0.30860  0.94120  0.93970  Biso   1.000  C
  C162     1.0000 0.30890  0.90720  0.90120  Biso   1.000  C
  C163     1.0000 0.26840  0.89730  0.87930  Biso   1.000  C
  H102     1.0000 0.24130  0.90890  0.89000  Biso   1.000  H
  C164     1.0000 0.26950  0.86950  0.84110  Biso   1.000  C
  C165     1.0000 0.30960  0.85280  0.82520  Biso   1.000  C
  H103     1.0000 0.30980  0.83420  0.80000  Biso   1.000  H
  C166     1.0000 0.34970  0.86350  0.84650  Biso   1.000  C
  C167     1.0000 0.42990  0.84330  0.83660  Biso   1.000  C
  C168     1.0000 0.46080  0.80550  0.75820  Biso   1.000  C
  H104     1.0000 0.43320  0.79930  0.74450  Biso   1.000  H
  C169     1.0000 0.46220  0.82950  0.79890  Biso   1.000  C
  C170     1.0000 0.22640  0.85970  0.81650  Biso   1.000  C
  C171     1.0000 0.17150  0.91610  0.72940  Biso   1.000  C
  C172     1.0000 0.18230  0.95960  0.70590  Biso   1.000  C
  C173     1.0000 0.20600  0.95910  0.66510  Biso   1.000  C
  H105     1.0000 0.21420  0.93190  0.65170  Biso   1.000  H
  C174     1.0000 0.34960  0.89150  0.88420  Biso   1.000  C
  H106     1.0000 0.37660  0.89960  0.89790  Biso   1.000  H
  C175     1.0000 0.27000  0.97380  0.58180  Biso   1.000  C
  H107     1.0000 0.46950  0.75850  0.68770  Biso   1.000  H
  H108     1.0000 0.51620  0.73730  0.70070  Biso   1.000  H
  H109     1.0000 0.51440  0.78230  0.67300  Biso   1.000  H
  H110     1.0000 0.41720  0.97320  0.51470  Biso   1.000  H
  O99      1.0000 0.38340  0.86150  0.76630  Biso   1.000  O
  C176     1.0000 0.40530  0.84480  0.79790  Biso   1.000  C
  O100     1.0000 0.78020  0.43910  0.10390  Biso   1.000  O
  O101     1.0000 0.77060  0.45310  0.45360  Biso   1.000  O
  O102     1.0000 0.84660  0.45380  0.45420  Biso   1.000  O
  O103     1.0000 0.72920  0.33630  0.28190  Biso   1.000  O
  O104     1.0000 0.68980  0.37550  0.33300  Biso   1.000  O
  O105     1.0000 0.68690  0.37940  0.21190  Biso   1.000  O
  O106     1.0000 0.64770  0.41890  0.26440  Biso   1.000  O
  O107     1.0000 0.93820  0.34880  0.37640  Biso   1.000  O
  N12      1.0000 0.89120  0.34630  0.32970  Biso   1.000  N
  H111     1.0000 0.73660  0.52570  0.08850  Biso   1.000  H
  C177     1.0000 0.80860  0.44120  0.43970  Biso   1.000  C
  C178     1.0000 0.80890  0.40720  0.40120  Biso   1.000  C
  C179     1.0000 0.76840  0.39730  0.37930  Biso   1.000  C
  H112     1.0000 0.74130  0.40890  0.39000  Biso   1.000  H
  C180     1.0000 0.76950  0.36950  0.34110  Biso   1.000  C
  C181     1.0000 0.80960  0.35280  0.32520  Biso   1.000  C
  H113     1.0000 0.80980  0.33420  0.30000  Biso   1.000  H
  C182     1.0000 0.84970  0.36350  0.34650  Biso   1.000  C
  C183     1.0000 0.92990  0.34330  0.33660  Biso   1.000  C
  C184     1.0000 0.96080  0.30550  0.25820  Biso   1.000  C
  H114     1.0000 0.93320  0.29930  0.24450  Biso   1.000  H
  C185     1.0000 0.96220  0.32950  0.29890  Biso   1.000  C
  C186     1.0000 0.72640  0.35970  0.31650  Biso   1.000  C
  C187     1.0000 0.67150  0.41610  0.22940  Biso   1.000  C
  C188     1.0000 0.68230  0.45960  0.20590  Biso   1.000  C
  C189     1.0000 0.70600  0.45910  0.16510  Biso   1.000  C
  H115     1.0000 0.71420  0.43190  0.15170  Biso   1.000  H
  C190     1.0000 0.84960  0.39150  0.38420  Biso   1.000  C
  H116     1.0000 0.87660  0.39960  0.39790  Biso   1.000  H
  C191     1.0000 0.77000  0.47380  0.08180  Biso   1.000  C
  H117     1.0000 0.96950  0.25850  0.18770  Biso   1.000  H
  H118     1.0000 0.01620  0.23730  0.20070  Biso   1.000  H
  H119     1.0000 0.01440  0.28230  0.17300  Biso   1.000  H
  H120     1.0000 0.91720  0.47320  0.01470  Biso   1.000  H
  O108     1.0000 0.88340  0.36150  0.26630  Biso   1.000  O
  C192     1.0000 0.90530  0.34480  0.29790  Biso   1.000  C
  O109     1.0000 0.06090  0.28020  0.60390  Biso   1.000  O
  O110     1.0000 0.04690  0.27060  0.95360  Biso   1.000  O
  O111     1.0000 0.04620  0.34660  0.95420  Biso   1.000  O
  O112     1.0000 0.16370  0.22920  0.78190  Biso   1.000  O
  O113     1.0000 0.12450  0.18980  0.83300  Biso   1.000  O
  O114     1.0000 0.12060  0.18690  0.71190  Biso   1.000  O
  O115     1.0000 0.08110  0.14770  0.76440  Biso   1.000  O
  O116     1.0000 0.15120  0.43820  0.87640  Biso   1.000  O
  N13      1.0000 0.15370  0.39120  0.82970  Biso   1.000  N
  H121     1.0000 0.97430  0.23660  0.58850  Biso   1.000  H
  C193     1.0000 0.05880  0.30860  0.93970  Biso   1.000  C
  C194     1.0000 0.09280  0.30890  0.90120  Biso   1.000  C
  C195     1.0000 0.10270  0.26840  0.87930  Biso   1.000  C
  H122     1.0000 0.09110  0.24130  0.89000  Biso   1.000  H
  C196     1.0000 0.13050  0.26950  0.84110  Biso   1.000  C
  C197     1.0000 0.14720  0.30960  0.82520  Biso   1.000  C
  H123     1.0000 0.16580  0.30980  0.80000  Biso   1.000  H
  C198     1.0000 0.13650  0.34970  0.84650  Biso   1.000  C
  C199     1.0000 0.15670  0.42990  0.83660  Biso   1.000  C
  C200     1.0000 0.19450  0.46080  0.75820  Biso   1.000  C
  H124     1.0000 0.20070  0.43320  0.74450  Biso   1.000  H
  C201     1.0000 0.17050  0.46220  0.79890  Biso   1.000  C
  C202     1.0000 0.14030  0.22640  0.81650  Biso   1.000  C
  C203     1.0000 0.08390  0.17150  0.72940  Biso   1.000  C
  C204     1.0000 0.04040  0.18230  0.70590  Biso   1.000  C
  C205     1.0000 0.04090  0.20600  0.66510  Biso   1.000  C
  H125     1.0000 0.06810  0.21420  0.65170  Biso   1.000  H
  C206     1.0000 0.10850  0.34960  0.88420  Biso   1.000  C
  H126     1.0000 0.10040  0.37660  0.89790  Biso   1.000  H
  C207     1.0000 0.02620  0.27000  0.58180  Biso   1.000  C
  H127     1.0000 0.24150  0.46950  0.68770  Biso   1.000  H
  H128     1.0000 0.26270  0.51620  0.70070  Biso   1.000  H
  H129     1.0000 0.21770  0.51440  0.67300  Biso   1.000  H
  H130     1.0000 0.02680  0.41720  0.51470  Biso   1.000  H
  O117     1.0000 0.13850  0.38340  0.76630  Biso   1.000  O
  C208     1.0000 0.15520  0.40530  0.79790  Biso   1.000  C
  O118     1.0000 0.56090  0.78020  0.10390  Biso   1.000  O
  O119     1.0000 0.54690  0.77060  0.45360  Biso   1.000  O
  O120     1.0000 0.54620  0.84660  0.45420  Biso   1.000  O
  O121     1.0000 0.66370  0.72920  0.28190  Biso   1.000  O
  O122     1.0000 0.62450  0.68980  0.33300  Biso   1.000  O
  O123     1.0000 0.62060  0.68690  0.21190  Biso   1.000  O
  O124     1.0000 0.58110  0.64770  0.26440  Biso   1.000  O
  O125     1.0000 0.65120  0.93820  0.37640  Biso   1.000  O
  N14      1.0000 0.65370  0.89120  0.32970  Biso   1.000  N
  H131     1.0000 0.47430  0.73660  0.08850  Biso   1.000  H
  C209     1.0000 0.55880  0.80860  0.43970  Biso   1.000  C
  C210     1.0000 0.59280  0.80890  0.40120  Biso   1.000  C
  C211     1.0000 0.60270  0.76840  0.37930  Biso   1.000  C
  H132     1.0000 0.59110  0.74130  0.39000  Biso   1.000  H
  C212     1.0000 0.63050  0.76950  0.34110  Biso   1.000  C
  C213     1.0000 0.64720  0.80960  0.32520  Biso   1.000  C
  H133     1.0000 0.66580  0.80980  0.30000  Biso   1.000  H
  C214     1.0000 0.63650  0.84970  0.34650  Biso   1.000  C
  C215     1.0000 0.65670  0.92990  0.33660  Biso   1.000  C
  C216     1.0000 0.69450  0.96080  0.25820  Biso   1.000  C
  H134     1.0000 0.70070  0.93320  0.24450  Biso   1.000  H
  C217     1.0000 0.67050  0.96220  0.29890  Biso   1.000  C
  C218     1.0000 0.64030  0.72640  0.31650  Biso   1.000  C
  C219     1.0000 0.58390  0.67150  0.22940  Biso   1.000  C
  C220     1.0000 0.54040  0.68230  0.20590  Biso   1.000  C
  C221     1.0000 0.54090  0.70600  0.16510  Biso   1.000  C
  H135     1.0000 0.56810  0.71420  0.15170  Biso   1.000  H
  C222     1.0000 0.60850  0.84960  0.38420  Biso   1.000  C
  H136     1.0000 0.60040  0.87660  0.39790  Biso   1.000  H
  C223     1.0000 0.52620  0.77000  0.08180  Biso   1.000  C
  H137     1.0000 0.74150  0.96950  0.18770  Biso   1.000  H
  H138     1.0000 0.76270  0.01620  0.20070  Biso   1.000  H
  H139     1.0000 0.71770  0.01440  0.17300  Biso   1.000  H
  H140     1.0000 0.52680  0.91720  0.01470  Biso   1.000  H
  O126     1.0000 0.63850  0.88340  0.26630  Biso   1.000  O
  C224     1.0000 0.65520  0.90530  0.29790  Biso   1.000  C
  O127     1.0000 0.93910  0.71980  0.60390  Biso   1.000  O
  O128     1.0000 0.95310  0.72940  0.95360  Biso   1.000  O
  O129     1.0000 0.95380  0.65340  0.95420  Biso   1.000  O
  O130     1.0000 0.83630  0.77080  0.78190  Biso   1.000  O
  O131     1.0000 0.87550  0.81020  0.83300  Biso   1.000  O
  O132     1.0000 0.87940  0.81310  0.71190  Biso   1.000  O
  O133     1.0000 0.91890  0.85230  0.76440  Biso   1.000  O
  O134     1.0000 0.84880  0.56180  0.87640  Biso   1.000  O
  N15      1.0000 0.84630  0.60880  0.82970  Biso   1.000  N
  H141     1.0000 0.02570  0.76340  0.58850  Biso   1.000  H
  C225     1.0000 0.94120  0.69140  0.93970  Biso   1.000  C
  C226     1.0000 0.90720  0.69110  0.90120  Biso   1.000  C
  C227     1.0000 0.89730  0.73160  0.87930  Biso   1.000  C
  H142     1.0000 0.90890  0.75870  0.89000  Biso   1.000  H
  C228     1.0000 0.86950  0.73050  0.84110  Biso   1.000  C
  C229     1.0000 0.85280  0.69040  0.82520  Biso   1.000  C
  H143     1.0000 0.83420  0.69020  0.80000  Biso   1.000  H
  C230     1.0000 0.86350  0.65030  0.84650  Biso   1.000  C
  C231     1.0000 0.84330  0.57010  0.83660  Biso   1.000  C
  C232     1.0000 0.80550  0.53920  0.75820  Biso   1.000  C
  H144     1.0000 0.79930  0.56680  0.74450  Biso   1.000  H
  C233     1.0000 0.82950  0.53780  0.79890  Biso   1.000  C
  C234     1.0000 0.85970  0.77360  0.81650  Biso   1.000  C
  C235     1.0000 0.91610  0.82850  0.72940  Biso   1.000  C
  C236     1.0000 0.95960  0.81770  0.70590  Biso   1.000  C
  C237     1.0000 0.95910  0.79400  0.66510  Biso   1.000  C
  H145     1.0000 0.93190  0.78580  0.65170  Biso   1.000  H
  C238     1.0000 0.89150  0.65040  0.88420  Biso   1.000  C
  H146     1.0000 0.89960  0.62340  0.89790  Biso   1.000  H
  C239     1.0000 0.97380  0.73000  0.58180  Biso   1.000  C
  H147     1.0000 0.75850  0.53050  0.68770  Biso   1.000  H
  H148     1.0000 0.73730  0.48380  0.70070  Biso   1.000  H
  H149     1.0000 0.78230  0.48560  0.67300  Biso   1.000  H
  H150     1.0000 0.97320  0.58280  0.51470  Biso   1.000  H
  O135     1.0000 0.86150  0.61660  0.76630  Biso   1.000  O
  C240     1.0000 0.84480  0.59470  0.79790  Biso   1.000  C
  O136     1.0000 0.43910  0.21980  0.10390  Biso   1.000  O
  O137     1.0000 0.45310  0.22940  0.45360  Biso   1.000  O
  O138     1.0000 0.45380  0.15340  0.45420  Biso   1.000  O
  O139     1.0000 0.33630  0.27080  0.28190  Biso   1.000  O
  O140     1.0000 0.37550  0.31020  0.33300  Biso   1.000  O
  O141     1.0000 0.37940  0.31310  0.21190  Biso   1.000  O
  O142     1.0000 0.41890  0.35230  0.26440  Biso   1.000  O
  O143     1.0000 0.34880  0.06180  0.37640  Biso   1.000  O
  N16      1.0000 0.34630  0.10880  0.32970  Biso   1.000  N
  H151     1.0000 0.52570  0.26340  0.08850  Biso   1.000  H
  C241     1.0000 0.44120  0.19140  0.43970  Biso   1.000  C
  C242     1.0000 0.40720  0.19110  0.40120  Biso   1.000  C
  C243     1.0000 0.39730  0.23160  0.37930  Biso   1.000  C
  H152     1.0000 0.40890  0.25870  0.39000  Biso   1.000  H
  C244     1.0000 0.36950  0.23050  0.34110  Biso   1.000  C
  C245     1.0000 0.35280  0.19040  0.32520  Biso   1.000  C
  H153     1.0000 0.33420  0.19020  0.30000  Biso   1.000  H
  C246     1.0000 0.36350  0.15030  0.34650  Biso   1.000  C
  C247     1.0000 0.34330  0.07010  0.33660  Biso   1.000  C
  C248     1.0000 0.30550  0.03920  0.25820  Biso   1.000  C
  H154     1.0000 0.29930  0.06680  0.24450  Biso   1.000  H
  C249     1.0000 0.32950  0.03780  0.29890  Biso   1.000  C
  C250     1.0000 0.35970  0.27360  0.31650  Biso   1.000  C
  C251     1.0000 0.41610  0.32850  0.22940  Biso   1.000  C
  C252     1.0000 0.45960  0.31770  0.20590  Biso   1.000  C
  C253     1.0000 0.45910  0.29400  0.16510  Biso   1.000  C
  H155     1.0000 0.43190  0.28580  0.15170  Biso   1.000  H
  C254     1.0000 0.39150  0.15040  0.38420  Biso   1.000  C
  H156     1.0000 0.39960  0.12340  0.39790  Biso   1.000  H
  C255     1.0000 0.47380  0.23000  0.08180  Biso   1.000  C
  H157     1.0000 0.25850  0.03050  0.18770  Biso   1.000  H
  H158     1.0000 0.23730  0.98380  0.20070  Biso   1.000  H
  H159     1.0000 0.28230  0.98560  0.17300  Biso   1.000  H
  H160     1.0000 0.47320  0.08280  0.01470  Biso   1.000  H
  O144     1.0000 0.36150  0.11660  0.26630  Biso   1.000  O
  C256     1.0000 0.34480  0.09470  0.29790  Biso   1.000  C
  O145     1.0000 0.71980  0.93910  0.60390  Biso   1.000  O
  O146     1.0000 0.72940  0.95310  0.95360  Biso   1.000  O
  O147     1.0000 0.65340  0.95380  0.95420  Biso   1.000  O
  O148     1.0000 0.77080  0.83630  0.78190  Biso   1.000  O
  O149     1.0000 0.81020  0.87550  0.83300  Biso   1.000  O
  O150     1.0000 0.81310  0.87940  0.71190  Biso   1.000  O
  O151     1.0000 0.85230  0.91890  0.76440  Biso   1.000  O
  O152     1.0000 0.56180  0.84880  0.87640  Biso   1.000  O
  N17      1.0000 0.60880  0.84630  0.82970  Biso   1.000  N
  H161     1.0000 0.76340  0.02570  0.58850  Biso   1.000  H
  C257     1.0000 0.69140  0.94120  0.93970  Biso   1.000  C
  C258     1.0000 0.69110  0.90720  0.90120  Biso   1.000  C
  C259     1.0000 0.73160  0.89730  0.87930  Biso   1.000  C
  H162     1.0000 0.75870  0.90890  0.89000  Biso   1.000  H
  C260     1.0000 0.73050  0.86950  0.84110  Biso   1.000  C
  C261     1.0000 0.69040  0.85280  0.82520  Biso   1.000  C
  H163     1.0000 0.69020  0.83420  0.80000  Biso   1.000  H
  C262     1.0000 0.65030  0.86350  0.84650  Biso   1.000  C
  C263     1.0000 0.57010  0.84330  0.83660  Biso   1.000  C
  C264     1.0000 0.53920  0.80550  0.75820  Biso   1.000  C
  H164     1.0000 0.56680  0.79930  0.74450  Biso   1.000  H
  C265     1.0000 0.53780  0.82950  0.79890  Biso   1.000  C
  C266     1.0000 0.77360  0.85970  0.81650  Biso   1.000  C
  C267     1.0000 0.82850  0.91610  0.72940  Biso   1.000  C
  C268     1.0000 0.81770  0.95960  0.70590  Biso   1.000  C
  C269     1.0000 0.79400  0.95910  0.66510  Biso   1.000  C
  H165     1.0000 0.78580  0.93190  0.65170  Biso   1.000  H
  C270     1.0000 0.65040  0.89150  0.88420  Biso   1.000  C
  H166     1.0000 0.62340  0.89960  0.89790  Biso   1.000  H
  C271     1.0000 0.73000  0.97380  0.58180  Biso   1.000  C
  H167     1.0000 0.53050  0.75850  0.68770  Biso   1.000  H
  H168     1.0000 0.48380  0.73730  0.70070  Biso   1.000  H
  H169     1.0000 0.48560  0.78230  0.67300  Biso   1.000  H
  H170     1.0000 0.58280  0.97320  0.51470  Biso   1.000  H
  O153     1.0000 0.61660  0.86150  0.76630  Biso   1.000  O
  C272     1.0000 0.59470  0.84480  0.79790  Biso   1.000  C
  O154     1.0000 0.21980  0.43910  0.10390  Biso   1.000  O
  O155     1.0000 0.22940  0.45310  0.45360  Biso   1.000  O
  O156     1.0000 0.15340  0.45380  0.45420  Biso   1.000  O
  O157     1.0000 0.27080  0.33630  0.28190  Biso   1.000  O
  O158     1.0000 0.31020  0.37550  0.33300  Biso   1.000  O
  O159     1.0000 0.31310  0.37940  0.21190  Biso   1.000  O
  O160     1.0000 0.35230  0.41890  0.26440  Biso   1.000  O
  O161     1.0000 0.06180  0.34880  0.37640  Biso   1.000  O
  N18      1.0000 0.10880  0.34630  0.32970  Biso   1.000  N
  H171     1.0000 0.26340  0.52570  0.08850  Biso   1.000  H
  C273     1.0000 0.19140  0.44120  0.43970  Biso   1.000  C
  C274     1.0000 0.19110  0.40720  0.40120  Biso   1.000  C
  C275     1.0000 0.23160  0.39730  0.37930  Biso   1.000  C
  H172     1.0000 0.25870  0.40890  0.39000  Biso   1.000  H
  C276     1.0000 0.23050  0.36950  0.34110  Biso   1.000  C
  C277     1.0000 0.19040  0.35280  0.32520  Biso   1.000  C
  H173     1.0000 0.19020  0.33420  0.30000  Biso   1.000  H
  C278     1.0000 0.15030  0.36350  0.34650  Biso   1.000  C
  C279     1.0000 0.07010  0.34330  0.33660  Biso   1.000  C
  C280     1.0000 0.03920  0.30550  0.25820  Biso   1.000  C
  H174     1.0000 0.06680  0.29930  0.24450  Biso   1.000  H
  C281     1.0000 0.03780  0.32950  0.29890  Biso   1.000  C
  C282     1.0000 0.27360  0.35970  0.31650  Biso   1.000  C
  C283     1.0000 0.32850  0.41610  0.22940  Biso   1.000  C
  C284     1.0000 0.31770  0.45960  0.20590  Biso   1.000  C
  C285     1.0000 0.29400  0.45910  0.16510  Biso   1.000  C
  H175     1.0000 0.28580  0.43190  0.15170  Biso   1.000  H
  C286     1.0000 0.15040  0.39150  0.38420  Biso   1.000  C
  H176     1.0000 0.12340  0.39960  0.39790  Biso   1.000  H
  C287     1.0000 0.23000  0.47380  0.08180  Biso   1.000  C
  H177     1.0000 0.03050  0.25850  0.18770  Biso   1.000  H
  H178     1.0000 0.98380  0.23730  0.20070  Biso   1.000  H
  H179     1.0000 0.98560  0.28230  0.17300  Biso   1.000  H
  H180     1.0000 0.08280  0.47320  0.01470  Biso   1.000  H
  O162     1.0000 0.11660  0.36150  0.26630  Biso   1.000  O
  C288     1.0000 0.09470  0.34480  0.29790  Biso   1.000  C
  O163     1.0000 0.28020  0.06090  0.60390  Biso   1.000  O
  O164     1.0000 0.27060  0.04690  0.95360  Biso   1.000  O
  O165     1.0000 0.34660  0.04620  0.95420  Biso   1.000  O
  O166     1.0000 0.22920  0.16370  0.78190  Biso   1.000  O
  O167     1.0000 0.18980  0.12450  0.83300  Biso   1.000  O
  O168     1.0000 0.18690  0.12060  0.71190  Biso   1.000  O
  O169     1.0000 0.14770  0.08110  0.76440  Biso   1.000  O
  O170     1.0000 0.43820  0.15120  0.87640  Biso   1.000  O
  N19      1.0000 0.39120  0.15370  0.82970  Biso   1.000  N
  H181     1.0000 0.23660  0.97430  0.58850  Biso   1.000  H
  C289     1.0000 0.30860  0.05880  0.93970  Biso   1.000  C
  C290     1.0000 0.30890  0.09280  0.90120  Biso   1.000  C
  C291     1.0000 0.26840  0.10270  0.87930  Biso   1.000  C
  H182     1.0000 0.24130  0.09110  0.89000  Biso   1.000  H
  C292     1.0000 0.26950  0.13050  0.84110  Biso   1.000  C
  C293     1.0000 0.30960  0.14720  0.82520  Biso   1.000  C
  H183     1.0000 0.30980  0.16580  0.80000  Biso   1.000  H
  C294     1.0000 0.34970  0.13650  0.84650  Biso   1.000  C
  C295     1.0000 0.42990  0.15670  0.83660  Biso   1.000  C
  C296     1.0000 0.46080  0.19450  0.75820  Biso   1.000  C
  H184     1.0000 0.43320  0.20070  0.74450  Biso   1.000  H
  C297     1.0000 0.46220  0.17050  0.79890  Biso   1.000  C
  C298     1.0000 0.22640  0.14030  0.81650  Biso   1.000  C
  C299     1.0000 0.17150  0.08390  0.72940  Biso   1.000  C
  C300     1.0000 0.18230  0.04040  0.70590  Biso   1.000  C
  C301     1.0000 0.20600  0.04090  0.66510  Biso   1.000  C
  H185     1.0000 0.21420  0.06810  0.65170  Biso   1.000  H
  C302     1.0000 0.34960  0.10850  0.88420  Biso   1.000  C
  H186     1.0000 0.37660  0.10040  0.89790  Biso   1.000  H
  C303     1.0000 0.27000  0.02620  0.58180  Biso   1.000  C
  H187     1.0000 0.46950  0.24150  0.68770  Biso   1.000  H
  H188     1.0000 0.51620  0.26270  0.70070  Biso   1.000  H
  H189     1.0000 0.51440  0.21770  0.67300  Biso   1.000  H
  H190     1.0000 0.41720  0.02680  0.51470  Biso   1.000  H
  O171     1.0000 0.38340  0.13850  0.76630  Biso   1.000  O
  C304     1.0000 0.40530  0.15520  0.79790  Biso   1.000  C
  O172     1.0000 0.78020  0.56090  0.10390  Biso   1.000  O
  O173     1.0000 0.77060  0.54690  0.45360  Biso   1.000  O
  O174     1.0000 0.84660  0.54620  0.45420  Biso   1.000  O
  O175     1.0000 0.72920  0.66370  0.28190  Biso   1.000  O
  O176     1.0000 0.68980  0.62450  0.33300  Biso   1.000  O
  O177     1.0000 0.68690  0.62060  0.21190  Biso   1.000  O
  O178     1.0000 0.64770  0.58110  0.26440  Biso   1.000  O
  O179     1.0000 0.93820  0.65120  0.37640  Biso   1.000  O
  N20      1.0000 0.89120  0.65370  0.32970  Biso   1.000  N
  H191     1.0000 0.73660  0.47430  0.08850  Biso   1.000  H
  C305     1.0000 0.80860  0.55880  0.43970  Biso   1.000  C
  C306     1.0000 0.80890  0.59280  0.40120  Biso   1.000  C
  C307     1.0000 0.76840  0.60270  0.37930  Biso   1.000  C
  H192     1.0000 0.74130  0.59110  0.39000  Biso   1.000  H
  C308     1.0000 0.76950  0.63050  0.34110  Biso   1.000  C
  C309     1.0000 0.80960  0.64720  0.32520  Biso   1.000  C
  H193     1.0000 0.80980  0.66580  0.30000  Biso   1.000  H
  C310     1.0000 0.84970  0.63650  0.34650  Biso   1.000  C
  C311     1.0000 0.92990  0.65670  0.33660  Biso   1.000  C
  C312     1.0000 0.96080  0.69450  0.25820  Biso   1.000  C
  H194     1.0000 0.93320  0.70070  0.24450  Biso   1.000  H
  C313     1.0000 0.96220  0.67050  0.29890  Biso   1.000  C
  C314     1.0000 0.72640  0.64030  0.31650  Biso   1.000  C
  C315     1.0000 0.67150  0.58390  0.22940  Biso   1.000  C
  C316     1.0000 0.68230  0.54040  0.20590  Biso   1.000  C
  C317     1.0000 0.70600  0.54090  0.16510  Biso   1.000  C
  H195     1.0000 0.71420  0.56810  0.15170  Biso   1.000  H
  C318     1.0000 0.84960  0.60850  0.38420  Biso   1.000  C
  H196     1.0000 0.87660  0.60040  0.39790  Biso   1.000  H
  C319     1.0000 0.77000  0.52620  0.08180  Biso   1.000  C
  H197     1.0000 0.96950  0.74150  0.18770  Biso   1.000  H
  H198     1.0000 0.01620  0.76270  0.20070  Biso   1.000  H
  H199     1.0000 0.01440  0.71770  0.17300  Biso   1.000  H
  H200     1.0000 0.91720  0.52680  0.01470  Biso   1.000  H
  O180     1.0000 0.88340  0.63850  0.26630  Biso   1.000  O
  C320     1.0000 0.90530  0.65520  0.29790  Biso   1.000  C
  O181     1.0000 0.06090  0.71980  0.60390  Biso   1.000  O
  O182     1.0000 0.04690  0.72940  0.95360  Biso   1.000  O
  O183     1.0000 0.04620  0.65340  0.95420  Biso   1.000  O
  O184     1.0000 0.16370  0.77080  0.78190  Biso   1.000  O
  O185     1.0000 0.12450  0.81020  0.83300  Biso   1.000  O
  O186     1.0000 0.12060  0.81310  0.71190  Biso   1.000  O
  O187     1.0000 0.08110  0.85230  0.76440  Biso   1.000  O
  O188     1.0000 0.15120  0.56180  0.87640  Biso   1.000  O
  N21      1.0000 0.15370  0.60880  0.82970  Biso   1.000  N
  H201     1.0000 0.97430  0.76340  0.58850  Biso   1.000  H
  C321     1.0000 0.05880  0.69140  0.93970  Biso   1.000  C
  C322     1.0000 0.09280  0.69110  0.90120  Biso   1.000  C
  C323     1.0000 0.10270  0.73160  0.87930  Biso   1.000  C
  H202     1.0000 0.09110  0.75870  0.89000  Biso   1.000  H
  C324     1.0000 0.13050  0.73050  0.84110  Biso   1.000  C
  C325     1.0000 0.14720  0.69040  0.82520  Biso   1.000  C
  H203     1.0000 0.16580  0.69020  0.80000  Biso   1.000  H
  C326     1.0000 0.13650  0.65030  0.84650  Biso   1.000  C
  C327     1.0000 0.15670  0.57010  0.83660  Biso   1.000  C
  C328     1.0000 0.19450  0.53920  0.75820  Biso   1.000  C
  H204     1.0000 0.20070  0.56680  0.74450  Biso   1.000  H
  C329     1.0000 0.17050  0.53780  0.79890  Biso   1.000  C
  C330     1.0000 0.14030  0.77360  0.81650  Biso   1.000  C
  C331     1.0000 0.08390  0.82850  0.72940  Biso   1.000  C
  C332     1.0000 0.04040  0.81770  0.70590  Biso   1.000  C
  C333     1.0000 0.04090  0.79400  0.66510  Biso   1.000  C
  H205     1.0000 0.06810  0.78580  0.65170  Biso   1.000  H
  C334     1.0000 0.10850  0.65040  0.88420  Biso   1.000  C
  H206     1.0000 0.10040  0.62340  0.89790  Biso   1.000  H
  C335     1.0000 0.02620  0.73000  0.58180  Biso   1.000  C
  H207     1.0000 0.24150  0.53050  0.68770  Biso   1.000  H
  H208     1.0000 0.26270  0.48380  0.70070  Biso   1.000  H
  H209     1.0000 0.21770  0.48560  0.67300  Biso   1.000  H
  H210     1.0000 0.02680  0.58280  0.51470  Biso   1.000  H
  O189     1.0000 0.13850  0.61660  0.76630  Biso   1.000  O
  C336     1.0000 0.15520  0.59470  0.79790  Biso   1.000  C
  O190     1.0000 0.56090  0.21980  0.10390  Biso   1.000  O
  O191     1.0000 0.54690  0.22940  0.45360  Biso   1.000  O
  O192     1.0000 0.54620  0.15340  0.45420  Biso   1.000  O
  O193     1.0000 0.66370  0.27080  0.28190  Biso   1.000  O
  O194     1.0000 0.62450  0.31020  0.33300  Biso   1.000  O
  O195     1.0000 0.62060  0.31310  0.21190  Biso   1.000  O
  O196     1.0000 0.58110  0.35230  0.26440  Biso   1.000  O
  O197     1.0000 0.65120  0.06180  0.37640  Biso   1.000  O
  N22      1.0000 0.65370  0.10880  0.32970  Biso   1.000  N
  H211     1.0000 0.47430  0.26340  0.08850  Biso   1.000  H
  C337     1.0000 0.55880  0.19140  0.43970  Biso   1.000  C
  C338     1.0000 0.59280  0.19110  0.40120  Biso   1.000  C
  C339     1.0000 0.60270  0.23160  0.37930  Biso   1.000  C
  H212     1.0000 0.59110  0.25870  0.39000  Biso   1.000  H
  C340     1.0000 0.63050  0.23050  0.34110  Biso   1.000  C
  C341     1.0000 0.64720  0.19040  0.32520  Biso   1.000  C
  H213     1.0000 0.66580  0.19020  0.30000  Biso   1.000  H
  C342     1.0000 0.63650  0.15030  0.34650  Biso   1.000  C
  C343     1.0000 0.65670  0.07010  0.33660  Biso   1.000  C
  C344     1.0000 0.69450  0.03920  0.25820  Biso   1.000  C
  H214     1.0000 0.70070  0.06680  0.24450  Biso   1.000  H
  C345     1.0000 0.67050  0.03780  0.29890  Biso   1.000  C
  C346     1.0000 0.64030  0.27360  0.31650  Biso   1.000  C
  C347     1.0000 0.58390  0.32850  0.22940  Biso   1.000  C
  C348     1.0000 0.54040  0.31770  0.20590  Biso   1.000  C
  C349     1.0000 0.54090  0.29400  0.16510  Biso   1.000  C
  H215     1.0000 0.56810  0.28580  0.15170  Biso   1.000  H
  C350     1.0000 0.60850  0.15040  0.38420  Biso   1.000  C
  H216     1.0000 0.60040  0.12340  0.39790  Biso   1.000  H
  C351     1.0000 0.52620  0.23000  0.08180  Biso   1.000  C
  H217     1.0000 0.74150  0.03050  0.18770  Biso   1.000  H
  H218     1.0000 0.76270  0.98380  0.20070  Biso   1.000  H
  H219     1.0000 0.71770  0.98560  0.17300  Biso   1.000  H
  H220     1.0000 0.52680  0.08280  0.01470  Biso   1.000  H
  O198     1.0000 0.63850  0.11660  0.26630  Biso   1.000  O
  C352     1.0000 0.65520  0.09470  0.29790  Biso   1.000  C
  O199     1.0000 0.93910  0.28020  0.60390  Biso   1.000  O
  O200     1.0000 0.95310  0.27060  0.95360  Biso   1.000  O
  O201     1.0000 0.95380  0.34660  0.95420  Biso   1.000  O
  O202     1.0000 0.83630  0.22920  0.78190  Biso   1.000  O
  O203     1.0000 0.87550  0.18980  0.83300  Biso   1.000  O
  O204     1.0000 0.87940  0.18690  0.71190  Biso   1.000  O
  O205     1.0000 0.91890  0.14770  0.76440  Biso   1.000  O
  O206     1.0000 0.84880  0.43820  0.87640  Biso   1.000  O
  N23      1.0000 0.84630  0.39120  0.82970  Biso   1.000  N
  H221     1.0000 0.02570  0.23660  0.58850  Biso   1.000  H
  C353     1.0000 0.94120  0.30860  0.93970  Biso   1.000  C
  C354     1.0000 0.90720  0.30890  0.90120  Biso   1.000  C
  C355     1.0000 0.89730  0.26840  0.87930  Biso   1.000  C
  H222     1.0000 0.90890  0.24130  0.89000  Biso   1.000  H
  C356     1.0000 0.86950  0.26950  0.84110  Biso   1.000  C
  C357     1.0000 0.85280  0.30960  0.82520  Biso   1.000  C
  H223     1.0000 0.83420  0.30980  0.80000  Biso   1.000  H
  C358     1.0000 0.86350  0.34970  0.84650  Biso   1.000  C
  C359     1.0000 0.84330  0.42990  0.83660  Biso   1.000  C
  C360     1.0000 0.80550  0.46080  0.75820  Biso   1.000  C
  H224     1.0000 0.79930  0.43320  0.74450  Biso   1.000  H
  C361     1.0000 0.82950  0.46220  0.79890  Biso   1.000  C
  C362     1.0000 0.85970  0.22640  0.81650  Biso   1.000  C
  C363     1.0000 0.91610  0.17150  0.72940  Biso   1.000  C
  C364     1.0000 0.95960  0.18230  0.70590  Biso   1.000  C
  C365     1.0000 0.95910  0.20600  0.66510  Biso   1.000  C
  H225     1.0000 0.93190  0.21420  0.65170  Biso   1.000  H
  C366     1.0000 0.89150  0.34960  0.88420  Biso   1.000  C
  H226     1.0000 0.89960  0.37660  0.89790  Biso   1.000  H
  C367     1.0000 0.97380  0.27000  0.58180  Biso   1.000  C
  H227     1.0000 0.75850  0.46950  0.68770  Biso   1.000  H
  H228     1.0000 0.73730  0.51620  0.70070  Biso   1.000  H
  H229     1.0000 0.78230  0.51440  0.67300  Biso   1.000  H
  H230     1.0000 0.97320  0.41720  0.51470  Biso   1.000  H
  O207     1.0000 0.86150  0.38340  0.76630  Biso   1.000  O
  C368     1.0000 0.84480  0.40530  0.79790  Biso   1.000  C
  O208     1.0000 0.43910  0.78020  0.10390  Biso   1.000  O
  O209     1.0000 0.45310  0.77060  0.45360  Biso   1.000  O
  O210     1.0000 0.45380  0.84660  0.45420  Biso   1.000  O
  O211     1.0000 0.33630  0.72920  0.28190  Biso   1.000  O
  O212     1.0000 0.37550  0.68980  0.33300  Biso   1.000  O
  O213     1.0000 0.37940  0.68690  0.21190  Biso   1.000  O
  O214     1.0000 0.41890  0.64770  0.26440  Biso   1.000  O
  O215     1.0000 0.34880  0.93820  0.37640  Biso   1.000  O
  N24      1.0000 0.34630  0.89120  0.32970  Biso   1.000  N
  H231     1.0000 0.52570  0.73660  0.08850  Biso   1.000  H
  C369     1.0000 0.44120  0.80860  0.43970  Biso   1.000  C
  C370     1.0000 0.40720  0.80890  0.40120  Biso   1.000  C
  C371     1.0000 0.39730  0.76840  0.37930  Biso   1.000  C
  H232     1.0000 0.40890  0.74130  0.39000  Biso   1.000  H
  C372     1.0000 0.36950  0.76950  0.34110  Biso   1.000  C
  C373     1.0000 0.35280  0.80960  0.32520  Biso   1.000  C
  H233     1.0000 0.33420  0.80980  0.30000  Biso   1.000  H
  C374     1.0000 0.36350  0.84970  0.34650  Biso   1.000  C
  C375     1.0000 0.34330  0.92990  0.33660  Biso   1.000  C
  C376     1.0000 0.30550  0.96080  0.25820  Biso   1.000  C
  H234     1.0000 0.29930  0.93320  0.24450  Biso   1.000  H
  C377     1.0000 0.32950  0.96220  0.29890  Biso   1.000  C
  C378     1.0000 0.35970  0.72640  0.31650  Biso   1.000  C
  C379     1.0000 0.41610  0.67150  0.22940  Biso   1.000  C
  C380     1.0000 0.45960  0.68230  0.20590  Biso   1.000  C
  C381     1.0000 0.45910  0.70600  0.16510  Biso   1.000  C
  H235     1.0000 0.43190  0.71420  0.15170  Biso   1.000  H
  C382     1.0000 0.39150  0.84960  0.38420  Biso   1.000  C
  H236     1.0000 0.39960  0.87660  0.39790  Biso   1.000  H
  C383     1.0000 0.47380  0.77000  0.08180  Biso   1.000  C
  H237     1.0000 0.25850  0.96950  0.18770  Biso   1.000  H
  H238     1.0000 0.23730  0.01620  0.20070  Biso   1.000  H
  H239     1.0000 0.28230  0.01440  0.17300  Biso   1.000  H
  H240     1.0000 0.47320  0.91720  0.01470  Biso   1.000  H
  O216     1.0000 0.36150  0.88340  0.26630  Biso   1.000  O
  C384     1.0000 0.34480  0.90530  0.29790  Biso   1.000  C
  O217     1.0000 0.28020  0.93910  0.39610  Biso   1.000  O
  O218     1.0000 0.27060  0.95310  0.04640  Biso   1.000  O
  O219     1.0000 0.34660  0.95380  0.04580  Biso   1.000  O
  O220     1.0000 0.22920  0.83630  0.21810  Biso   1.000  O
  O221     1.0000 0.18980  0.87550  0.16700  Biso   1.000  O
  O222     1.0000 0.18690  0.87940  0.28810  Biso   1.000  O
  O223     1.0000 0.14770  0.91890  0.23560  Biso   1.000  O
  O224     1.0000 0.43820  0.84880  0.12360  Biso   1.000  O
  N25      1.0000 0.39120  0.84630  0.17030  Biso   1.000  N
  H241     1.0000 0.23660  0.02570  0.41150  Biso   1.000  H
  C385     1.0000 0.30860  0.94120  0.06030  Biso   1.000  C
  C386     1.0000 0.30890  0.90720  0.09880  Biso   1.000  C
  C387     1.0000 0.26840  0.89730  0.12070  Biso   1.000  C
  H242     1.0000 0.24130  0.90890  0.11000  Biso   1.000  H
  C388     1.0000 0.26950  0.86950  0.15890  Biso   1.000  C
  C389     1.0000 0.30960  0.85280  0.17480  Biso   1.000  C
  H243     1.0000 0.30980  0.83420  0.20000  Biso   1.000  H
  C390     1.0000 0.34970  0.86350  0.15350  Biso   1.000  C
  C391     1.0000 0.42990  0.84330  0.16340  Biso   1.000  C
  C392     1.0000 0.46080  0.80550  0.24180  Biso   1.000  C
  H244     1.0000 0.43320  0.79930  0.25550  Biso   1.000  H
  C393     1.0000 0.46220  0.82950  0.20110  Biso   1.000  C
  C394     1.0000 0.22640  0.85970  0.18350  Biso   1.000  C
  C395     1.0000 0.17150  0.91610  0.27060  Biso   1.000  C
  C396     1.0000 0.18230  0.95960  0.29410  Biso   1.000  C
  C397     1.0000 0.20600  0.95910  0.33490  Biso   1.000  C
  H245     1.0000 0.21420  0.93190  0.34830  Biso   1.000  H
  C398     1.0000 0.34960  0.89150  0.11580  Biso   1.000  C
  H246     1.0000 0.37660  0.89960  0.10210  Biso   1.000  H
  C399     1.0000 0.27000  0.97380  0.41820  Biso   1.000  C
  H247     1.0000 0.46950  0.75850  0.31230  Biso   1.000  H
  H248     1.0000 0.51620  0.73730  0.29930  Biso   1.000  H
  H249     1.0000 0.51440  0.78230  0.32700  Biso   1.000  H
  H250     1.0000 0.41720  0.97320  0.48530  Biso   1.000  H
  O225     1.0000 0.38340  0.86150  0.23370  Biso   1.000  O
  C400     1.0000 0.40530  0.84480  0.20210  Biso   1.000  C
  O226     1.0000 0.78020  0.43910  0.89610  Biso   1.000  O
  O227     1.0000 0.77060  0.45310  0.54640  Biso   1.000  O
  O228     1.0000 0.84660  0.45380  0.54580  Biso   1.000  O
  O229     1.0000 0.72920  0.33630  0.71810  Biso   1.000  O
  O230     1.0000 0.68980  0.37550  0.66700  Biso   1.000  O
  O231     1.0000 0.68690  0.37940  0.78810  Biso   1.000  O
  O232     1.0000 0.64770  0.41890  0.73560  Biso   1.000  O
  O233     1.0000 0.93820  0.34880  0.62360  Biso   1.000  O
  N26      1.0000 0.89120  0.34630  0.67030  Biso   1.000  N
  H251     1.0000 0.73660  0.52570  0.91150  Biso   1.000  H
  C401     1.0000 0.80860  0.44120  0.56030  Biso   1.000  C
  C402     1.0000 0.80890  0.40720  0.59880  Biso   1.000  C
  C403     1.0000 0.76840  0.39730  0.62070  Biso   1.000  C
  H252     1.0000 0.74130  0.40890  0.61000  Biso   1.000  H
  C404     1.0000 0.76950  0.36950  0.65890  Biso   1.000  C
  C405     1.0000 0.80960  0.35280  0.67480  Biso   1.000  C
  H253     1.0000 0.80980  0.33420  0.70000  Biso   1.000  H
  C406     1.0000 0.84970  0.36350  0.65350  Biso   1.000  C
  C407     1.0000 0.92990  0.34330  0.66340  Biso   1.000  C
  C408     1.0000 0.96080  0.30550  0.74180  Biso   1.000  C
  H254     1.0000 0.93320  0.29930  0.75550  Biso   1.000  H
  C409     1.0000 0.96220  0.32950  0.70110  Biso   1.000  C
  C410     1.0000 0.72640  0.35970  0.68350  Biso   1.000  C
  C411     1.0000 0.67150  0.41610  0.77060  Biso   1.000  C
  C412     1.0000 0.68230  0.45960  0.79410  Biso   1.000  C
  C413     1.0000 0.70600  0.45910  0.83490  Biso   1.000  C
  H255     1.0000 0.71420  0.43190  0.84830  Biso   1.000  H
  C414     1.0000 0.84960  0.39150  0.61580  Biso   1.000  C
  H256     1.0000 0.87660  0.39960  0.60210  Biso   1.000  H
  C415     1.0000 0.77000  0.47380  0.91820  Biso   1.000  C
  H257     1.0000 0.96950  0.25850  0.81230  Biso   1.000  H
  H258     1.0000 0.01620  0.23730  0.79930  Biso   1.000  H
  H259     1.0000 0.01440  0.28230  0.82700  Biso   1.000  H
  H260     1.0000 0.91720  0.47320  0.98530  Biso   1.000  H
  O234     1.0000 0.88340  0.36150  0.73370  Biso   1.000  O
  C416     1.0000 0.90530  0.34480  0.70210  Biso   1.000  C
  O235     1.0000 0.71980  0.06090  0.39610  Biso   1.000  O
  O236     1.0000 0.72940  0.04690  0.04640  Biso   1.000  O
  O237     1.0000 0.65340  0.04620  0.04580  Biso   1.000  O
  O238     1.0000 0.77080  0.16370  0.21810  Biso   1.000  O
  O239     1.0000 0.81020  0.12450  0.16700  Biso   1.000  O
  O240     1.0000 0.81310  0.12060  0.28810  Biso   1.000  O
  O241     1.0000 0.85230  0.08110  0.23560  Biso   1.000  O
  O242     1.0000 0.56180  0.15120  0.12360  Biso   1.000  O
  N27      1.0000 0.60880  0.15370  0.17030  Biso   1.000  N
  H261     1.0000 0.76340  0.97430  0.41150  Biso   1.000  H
  C417     1.0000 0.69140  0.05880  0.06030  Biso   1.000  C
  C418     1.0000 0.69110  0.09280  0.09880  Biso   1.000  C
  C419     1.0000 0.73160  0.10270  0.12070  Biso   1.000  C
  H262     1.0000 0.75870  0.09110  0.11000  Biso   1.000  H
  C420     1.0000 0.73050  0.13050  0.15890  Biso   1.000  C
  C421     1.0000 0.69040  0.14720  0.17480  Biso   1.000  C
  H263     1.0000 0.69020  0.16580  0.20000  Biso   1.000  H
  C422     1.0000 0.65030  0.13650  0.15350  Biso   1.000  C
  C423     1.0000 0.57010  0.15670  0.16340  Biso   1.000  C
  C424     1.0000 0.53920  0.19450  0.24180  Biso   1.000  C
  H264     1.0000 0.56680  0.20070  0.25550  Biso   1.000  H
  C425     1.0000 0.53780  0.17050  0.20110  Biso   1.000  C
  C426     1.0000 0.77360  0.14030  0.18350  Biso   1.000  C
  C427     1.0000 0.82850  0.08390  0.27060  Biso   1.000  C
  C428     1.0000 0.81770  0.04040  0.29410  Biso   1.000  C
  C429     1.0000 0.79400  0.04090  0.33490  Biso   1.000  C
  H265     1.0000 0.78580  0.06810  0.34830  Biso   1.000  H
  C430     1.0000 0.65040  0.10850  0.11580  Biso   1.000  C
  H266     1.0000 0.62340  0.10040  0.10210  Biso   1.000  H
  C431     1.0000 0.73000  0.02620  0.41820  Biso   1.000  C
  H267     1.0000 0.53050  0.24150  0.31230  Biso   1.000  H
  H268     1.0000 0.48380  0.26270  0.29930  Biso   1.000  H
  H269     1.0000 0.48560  0.21770  0.32700  Biso   1.000  H
  H270     1.0000 0.58280  0.02680  0.48530  Biso   1.000  H
  O243     1.0000 0.61660  0.13850  0.23370  Biso   1.000  O
  C432     1.0000 0.59470  0.15520  0.20210  Biso   1.000  C
  O244     1.0000 0.21980  0.56090  0.89610  Biso   1.000  O
  O245     1.0000 0.22940  0.54690  0.54640  Biso   1.000  O
  O246     1.0000 0.15340  0.54620  0.54580  Biso   1.000  O
  O247     1.0000 0.27080  0.66370  0.71810  Biso   1.000  O
  O248     1.0000 0.31020  0.62450  0.66700  Biso   1.000  O
  O249     1.0000 0.31310  0.62060  0.78810  Biso   1.000  O
  O250     1.0000 0.35230  0.58110  0.73560  Biso   1.000  O
  O251     1.0000 0.06180  0.65120  0.62360  Biso   1.000  O
  N28      1.0000 0.10880  0.65370  0.67030  Biso   1.000  N
  H271     1.0000 0.26340  0.47430  0.91150  Biso   1.000  H
  C433     1.0000 0.19140  0.55880  0.56030  Biso   1.000  C
  C434     1.0000 0.19110  0.59280  0.59880  Biso   1.000  C
  C435     1.0000 0.23160  0.60270  0.62070  Biso   1.000  C
  H272     1.0000 0.25870  0.59110  0.61000  Biso   1.000  H
  C436     1.0000 0.23050  0.63050  0.65890  Biso   1.000  C
  C437     1.0000 0.19040  0.64720  0.67480  Biso   1.000  C
  H273     1.0000 0.19020  0.66580  0.70000  Biso   1.000  H
  C438     1.0000 0.15030  0.63650  0.65350  Biso   1.000  C
  C439     1.0000 0.07010  0.65670  0.66340  Biso   1.000  C
  C440     1.0000 0.03920  0.69450  0.74180  Biso   1.000  C
  H274     1.0000 0.06680  0.70070  0.75550  Biso   1.000  H
  C441     1.0000 0.03780  0.67050  0.70110  Biso   1.000  C
  C442     1.0000 0.27360  0.64030  0.68350  Biso   1.000  C
  C443     1.0000 0.32850  0.58390  0.77060  Biso   1.000  C
  C444     1.0000 0.31770  0.54040  0.79410  Biso   1.000  C
  C445     1.0000 0.29400  0.54090  0.83490  Biso   1.000  C
  H275     1.0000 0.28580  0.56810  0.84830  Biso   1.000  H
  C446     1.0000 0.15040  0.60850  0.61580  Biso   1.000  C
  H276     1.0000 0.12340  0.60040  0.60210  Biso   1.000  H
  C447     1.0000 0.23000  0.52620  0.91820  Biso   1.000  C
  H277     1.0000 0.03050  0.74150  0.81230  Biso   1.000  H
  H278     1.0000 0.98380  0.76270  0.79930  Biso   1.000  H
  H279     1.0000 0.98560  0.71770  0.82700  Biso   1.000  H
  H280     1.0000 0.08280  0.52680  0.98530  Biso   1.000  H
  O252     1.0000 0.11660  0.63850  0.73370  Biso   1.000  O
  C448     1.0000 0.09470  0.65520  0.70210  Biso   1.000  C
  O253     1.0000 0.93910  0.71980  0.39610  Biso   1.000  O
  O254     1.0000 0.95310  0.72940  0.04640  Biso   1.000  O
  O255     1.0000 0.95380  0.65340  0.04580  Biso   1.000  O
  O256     1.0000 0.83630  0.77080  0.21810  Biso   1.000  O
  O257     1.0000 0.87550  0.81020  0.16700  Biso   1.000  O
  O258     1.0000 0.87940  0.81310  0.28810  Biso   1.000  O
  O259     1.0000 0.91890  0.85230  0.23560  Biso   1.000  O
  O260     1.0000 0.84880  0.56180  0.12360  Biso   1.000  O
  N29      1.0000 0.84630  0.60880  0.17030  Biso   1.000  N
  H281     1.0000 0.02570  0.76340  0.41150  Biso   1.000  H
  C449     1.0000 0.94120  0.69140  0.06030  Biso   1.000  C
  C450     1.0000 0.90720  0.69110  0.09880  Biso   1.000  C
  C451     1.0000 0.89730  0.73160  0.12070  Biso   1.000  C
  H282     1.0000 0.90890  0.75870  0.11000  Biso   1.000  H
  C452     1.0000 0.86950  0.73050  0.15890  Biso   1.000  C
  C453     1.0000 0.85280  0.69040  0.17480  Biso   1.000  C
  H283     1.0000 0.83420  0.69020  0.20000  Biso   1.000  H
  C454     1.0000 0.86350  0.65030  0.15350  Biso   1.000  C
  C455     1.0000 0.84330  0.57010  0.16340  Biso   1.000  C
  C456     1.0000 0.80550  0.53920  0.24180  Biso   1.000  C
  H284     1.0000 0.79930  0.56680  0.25550  Biso   1.000  H
  C457     1.0000 0.82950  0.53780  0.20110  Biso   1.000  C
  C458     1.0000 0.85970  0.77360  0.18350  Biso   1.000  C
  C459     1.0000 0.91610  0.82850  0.27060  Biso   1.000  C
  C460     1.0000 0.95960  0.81770  0.29410  Biso   1.000  C
  C461     1.0000 0.95910  0.79400  0.33490  Biso   1.000  C
  H285     1.0000 0.93190  0.78580  0.34830  Biso   1.000  H
  C462     1.0000 0.89150  0.65040  0.11580  Biso   1.000  C
  H286     1.0000 0.89960  0.62340  0.10210  Biso   1.000  H
  C463     1.0000 0.97380  0.73000  0.41820  Biso   1.000  C
  H287     1.0000 0.75850  0.53050  0.31230  Biso   1.000  H
  H288     1.0000 0.73730  0.48380  0.29930  Biso   1.000  H
  H289     1.0000 0.78230  0.48560  0.32700  Biso   1.000  H
  H290     1.0000 0.97320  0.58280  0.48530  Biso   1.000  H
  O261     1.0000 0.86150  0.61660  0.23370  Biso   1.000  O
  C464     1.0000 0.84480  0.59470  0.20210  Biso   1.000  C
  O262     1.0000 0.43910  0.21980  0.89610  Biso   1.000  O
  O263     1.0000 0.45310  0.22940  0.54640  Biso   1.000  O
  O264     1.0000 0.45380  0.15340  0.54580  Biso   1.000  O
  O265     1.0000 0.33630  0.27080  0.71810  Biso   1.000  O
  O266     1.0000 0.37550  0.31020  0.66700  Biso   1.000  O
  O267     1.0000 0.37940  0.31310  0.78810  Biso   1.000  O
  O268     1.0000 0.41890  0.35230  0.73560  Biso   1.000  O
  O269     1.0000 0.34880  0.06180  0.62360  Biso   1.000  O
  N30      1.0000 0.34630  0.10880  0.67030  Biso   1.000  N
  H291     1.0000 0.52570  0.26340  0.91150  Biso   1.000  H
  C465     1.0000 0.44120  0.19140  0.56030  Biso   1.000  C
  C466     1.0000 0.40720  0.19110  0.59880  Biso   1.000  C
  C467     1.0000 0.39730  0.23160  0.62070  Biso   1.000  C
  H292     1.0000 0.40890  0.25870  0.61000  Biso   1.000  H
  C468     1.0000 0.36950  0.23050  0.65890  Biso   1.000  C
  C469     1.0000 0.35280  0.19040  0.67480  Biso   1.000  C
  H293     1.0000 0.33420  0.19020  0.70000  Biso   1.000  H
  C470     1.0000 0.36350  0.15030  0.65350  Biso   1.000  C
  C471     1.0000 0.34330  0.07010  0.66340  Biso   1.000  C
  C472     1.0000 0.30550  0.03920  0.74180  Biso   1.000  C
  H294     1.0000 0.29930  0.06680  0.75550  Biso   1.000  H
  C473     1.0000 0.32950  0.03780  0.70110  Biso   1.000  C
  C474     1.0000 0.35970  0.27360  0.68350  Biso   1.000  C
  C475     1.0000 0.41610  0.32850  0.77060  Biso   1.000  C
  C476     1.0000 0.45960  0.31770  0.79410  Biso   1.000  C
  C477     1.0000 0.45910  0.29400  0.83490  Biso   1.000  C
  H295     1.0000 0.43190  0.28580  0.84830  Biso   1.000  H
  C478     1.0000 0.39150  0.15040  0.61580  Biso   1.000  C
  H296     1.0000 0.39960  0.12340  0.60210  Biso   1.000  H
  C479     1.0000 0.47380  0.23000  0.91820  Biso   1.000  C
  H297     1.0000 0.25850  0.03050  0.81230  Biso   1.000  H
  H298     1.0000 0.23730  0.98380  0.79930  Biso   1.000  H
  H299     1.0000 0.28230  0.98560  0.82700  Biso   1.000  H
  H300     1.0000 0.47320  0.08280  0.98530  Biso   1.000  H
  O270     1.0000 0.36150  0.11660  0.73370  Biso   1.000  O
  C480     1.0000 0.34480  0.09470  0.70210  Biso   1.000  C
  O271     1.0000 0.06090  0.28020  0.39610  Biso   1.000  O
  O272     1.0000 0.04690  0.27060  0.04640  Biso   1.000  O
  O273     1.0000 0.04620  0.34660  0.04580  Biso   1.000  O
  O274     1.0000 0.16370  0.22920  0.21810  Biso   1.000  O
  O275     1.0000 0.12450  0.18980  0.16700  Biso   1.000  O
  O276     1.0000 0.12060  0.18690  0.28810  Biso   1.000  O
  O277     1.0000 0.08110  0.14770  0.23560  Biso   1.000  O
  O278     1.0000 0.15120  0.43820  0.12360  Biso   1.000  O
  N31      1.0000 0.15370  0.39120  0.17030  Biso   1.000  N
  H301     1.0000 0.97430  0.23660  0.41150  Biso   1.000  H
  C481     1.0000 0.05880  0.30860  0.06030  Biso   1.000  C
  C482     1.0000 0.09280  0.30890  0.09880  Biso   1.000  C
  C483     1.0000 0.10270  0.26840  0.12070  Biso   1.000  C
  H302     1.0000 0.09110  0.24130  0.11000  Biso   1.000  H
  C484     1.0000 0.13050  0.26950  0.15890  Biso   1.000  C
  C485     1.0000 0.14720  0.30960  0.17480  Biso   1.000  C
  H303     1.0000 0.16580  0.30980  0.20000  Biso   1.000  H
  C486     1.0000 0.13650  0.34970  0.15350  Biso   1.000  C
  C487     1.0000 0.15670  0.42990  0.16340  Biso   1.000  C
  C488     1.0000 0.19450  0.46080  0.24180  Biso   1.000  C
  H304     1.0000 0.20070  0.43320  0.25550  Biso   1.000  H
  C489     1.0000 0.17050  0.46220  0.20110  Biso   1.000  C
  C490     1.0000 0.14030  0.22640  0.18350  Biso   1.000  C
  C491     1.0000 0.08390  0.17150  0.27060  Biso   1.000  C
  C492     1.0000 0.04040  0.18230  0.29410  Biso   1.000  C
  C493     1.0000 0.04090  0.20600  0.33490  Biso   1.000  C
  H305     1.0000 0.06810  0.21420  0.34830  Biso   1.000  H
  C494     1.0000 0.10850  0.34960  0.11580  Biso   1.000  C
  H306     1.0000 0.10040  0.37660  0.10210  Biso   1.000  H
  C495     1.0000 0.02620  0.27000  0.41820  Biso   1.000  C
  H307     1.0000 0.24150  0.46950  0.31230  Biso   1.000  H
  H308     1.0000 0.26270  0.51620  0.29930  Biso   1.000  H
  H309     1.0000 0.21770  0.51440  0.32700  Biso   1.000  H
  H310     1.0000 0.02680  0.41720  0.48530  Biso   1.000  H
  O279     1.0000 0.13850  0.38340  0.23370  Biso   1.000  O
  C496     1.0000 0.15520  0.40530  0.20210  Biso   1.000  C
  O280     1.0000 0.56090  0.78020  0.89610  Biso   1.000  O
  O281     1.0000 0.54690  0.77060  0.54640  Biso   1.000  O
  O282     1.0000 0.54620  0.84660  0.54580  Biso   1.000  O
  O283     1.0000 0.66370  0.72920  0.71810  Biso   1.000  O
  O284     1.0000 0.62450  0.68980  0.66700  Biso   1.000  O
  O285     1.0000 0.62060  0.68690  0.78810  Biso   1.000  O
  O286     1.0000 0.58110  0.64770  0.73560  Biso   1.000  O
  O287     1.0000 0.65120  0.93820  0.62360  Biso   1.000  O
  N32      1.0000 0.65370  0.89120  0.67030  Biso   1.000  N
  H311     1.0000 0.47430  0.73660  0.91150  Biso   1.000  H
  C497     1.0000 0.55880  0.80860  0.56030  Biso   1.000  C
  C498     1.0000 0.59280  0.80890  0.59880  Biso   1.000  C
  C499     1.0000 0.60270  0.76840  0.62070  Biso   1.000  C
  H312     1.0000 0.59110  0.74130  0.61000  Biso   1.000  H
  C500     1.0000 0.63050  0.76950  0.65890  Biso   1.000  C
  C501     1.0000 0.64720  0.80960  0.67480  Biso   1.000  C
  H313     1.0000 0.66580  0.80980  0.70000  Biso   1.000  H
  C502     1.0000 0.63650  0.84970  0.65350  Biso   1.000  C
  C503     1.0000 0.65670  0.92990  0.66340  Biso   1.000  C
  C504     1.0000 0.69450  0.96080  0.74180  Biso   1.000  C
  H314     1.0000 0.70070  0.93320  0.75550  Biso   1.000  H
  C505     1.0000 0.67050  0.96220  0.70110  Biso   1.000  C
  C506     1.0000 0.64030  0.72640  0.68350  Biso   1.000  C
  C507     1.0000 0.58390  0.67150  0.77060  Biso   1.000  C
  C508     1.0000 0.54040  0.68230  0.79410  Biso   1.000  C
  C509     1.0000 0.54090  0.70600  0.83490  Biso   1.000  C
  H315     1.0000 0.56810  0.71420  0.84830  Biso   1.000  H
  C510     1.0000 0.60850  0.84960  0.61580  Biso   1.000  C
  H316     1.0000 0.60040  0.87660  0.60210  Biso   1.000  H
  C511     1.0000 0.52620  0.77000  0.91820  Biso   1.000  C
  H317     1.0000 0.74150  0.96950  0.81230  Biso   1.000  H
  H318     1.0000 0.76270  0.01620  0.79930  Biso   1.000  H
  H319     1.0000 0.71770  0.01440  0.82700  Biso   1.000  H
  H320     1.0000 0.52680  0.91720  0.98530  Biso   1.000  H
  O288     1.0000 0.63850  0.88340  0.73370  Biso   1.000  O
  C512     1.0000 0.65520  0.90530  0.70210  Biso   1.000  C
  Cu1      1.0000 0.17844  0.17844  0.25768  Biso   1.000  Cu
  Cu2      1.0000 0.13220  0.13220  0.19742  Biso   1.000  Cu
  Cu3      1.0000 0.67844  0.67844  0.75768  Biso   1.000  Cu
  Cu4      1.0000 0.63220  0.63220  0.69742  Biso   1.000  Cu
  Cu5      1.0000 0.82156  0.82156  0.25768  Biso   1.000  Cu
  Cu6      1.0000 0.86780  0.86780  0.19742  Biso   1.000  Cu
  Cu7      1.0000 0.32156  0.32156  0.75768  Biso   1.000  Cu
  Cu8      1.0000 0.36780  0.36780  0.69742  Biso   1.000  Cu
  Cu9      1.0000 0.82156  0.17844  0.25768  Biso   1.000  Cu
  Cu10     1.0000 0.86780  0.13220  0.19742  Biso   1.000  Cu
  Cu11     1.0000 0.32156  0.67844  0.75768  Biso   1.000  Cu
  Cu12     1.0000 0.36780  0.63220  0.69742  Biso   1.000  Cu
  Cu13     1.0000 0.17844  0.82156  0.25768  Biso   1.000  Cu
  Cu14     1.0000 0.13220  0.86780  0.19742  Biso   1.000  Cu
  Cu15     1.0000 0.67844  0.32156  0.75768  Biso   1.000  Cu
  Cu16     1.0000 0.63220  0.36780  0.69742  Biso   1.000  Cu
  Cu17     1.0000 0.82156  0.17844  0.74232  Biso   1.000  Cu
  Cu18     1.0000 0.86780  0.13220  0.80258  Biso   1.000  Cu
  Cu19     1.0000 0.32156  0.67844  0.24232  Biso   1.000  Cu
  Cu20     1.0000 0.36780  0.63220  0.30258  Biso   1.000  Cu
  Cu21     1.0000 0.17844  0.82156  0.74232  Biso   1.000  Cu
  Cu22     1.0000 0.13220  0.86780  0.80258  Biso   1.000  Cu
  Cu23     1.0000 0.67844  0.32156  0.24232  Biso   1.000  Cu
  Cu24     1.0000 0.63220  0.36780  0.30258  Biso   1.000  Cu
  Cu25     1.0000 0.17844  0.17844  0.74232  Biso   1.000  Cu
  Cu26     1.0000 0.13220  0.13220  0.80258  Biso   1.000  Cu
  Cu27     1.0000 0.67844  0.67844  0.24232  Biso   1.000  Cu
  Cu28     1.0000 0.63220  0.63220  0.30258  Biso   1.000  Cu
  Cu29     1.0000 0.82156  0.82156  0.74232  Biso   1.000  Cu
  Cu30     1.0000 0.86780  0.86780  0.80258  Biso   1.000  Cu
  Cu31     1.0000 0.32156  0.32156  0.24232  Biso   1.000  Cu
  Cu32     1.0000 0.36780  0.36780  0.30258  Biso   1.000  Cu
  Cu33     1.0000 0.35308  0.00000  0.00000  Biso   1.000  Cu
  Cu34     1.0000 0.26384  0.00000  0.00000  Biso   1.000  Cu
  Cu35     1.0000 0.85308  0.50000  0.50000  Biso   1.000  Cu
  Cu36     1.0000 0.76384  0.50000  0.50000  Biso   1.000  Cu
  Cu37     1.0000 0.64692  0.00000  0.00000  Biso   1.000  Cu
  Cu38     1.0000 0.73616  0.00000  0.00000  Biso   1.000  Cu
  Cu39     1.0000 0.14692  0.50000  0.50000  Biso   1.000  Cu
  Cu40     1.0000 0.23616  0.50000  0.50000  Biso   1.000  Cu
  Cu41     1.0000 0.00000  0.35308  0.00000  Biso   1.000  Cu
  Cu42     1.0000 0.00000  0.26384  0.00000  Biso   1.000  Cu
  Cu43     1.0000 0.50000  0.85308  0.50000  Biso   1.000  Cu
  Cu44     1.0000 0.50000  0.76384  0.50000  Biso   1.000  Cu
  Cu45     1.0000 0.00000  0.64692  0.00000  Biso   1.000  Cu
  Cu46     1.0000 0.00000  0.73616  0.00000  Biso   1.000  Cu
  Cu47     1.0000 0.50000  0.14692  0.50000  Biso   1.000  Cu
  Cu48     1.0000 0.50000  0.23616  0.50000  Biso   1.000  Cu
  N33      1.0000 0.24160  0.00000  0.39610  Biso   1.000  N
  C513     1.0000 0.17000  0.00000  0.27520  Biso   1.000  C
  H321     1.0000 0.15300  0.00000  0.24890  Biso   1.000  H
  C514     1.0000 0.21730  0.00000  0.35520  Biso   1.000  C
  C515     1.0000 0.33210  0.00000  0.45960  Biso   1.000  C
  H322     1.0000 0.34740  0.00000  0.43220  Biso   1.000  H
  C516     1.0000 0.28560  0.00000  0.45960  Biso   1.000  C
  H323     1.0000 0.41720  0.00000  0.53050  Biso   1.000  H
  N34      1.0000 0.74160  0.50000  0.89610  Biso   1.000  N
  C517     1.0000 0.67000  0.50000  0.77520  Biso   1.000  C
  H324     1.0000 0.65300  0.50000  0.74890  Biso   1.000  H
  C518     1.0000 0.71730  0.50000  0.85520  Biso   1.000  C
  C519     1.0000 0.83210  0.50000  0.95960  Biso   1.000  C
  H325     1.0000 0.84740  0.50000  0.93220  Biso   1.000  H
  C520     1.0000 0.78560  0.50000  0.95960  Biso   1.000  C
  H326     1.0000 0.91720  0.50000  0.03050  Biso   1.000  H
  N35      1.0000 0.75840  0.00000  0.39610  Biso   1.000  N
  C521     1.0000 0.83000  0.00000  0.27520  Biso   1.000  C
  H327     1.0000 0.84700  0.00000  0.24890  Biso   1.000  H
  C522     1.0000 0.78270  0.00000  0.35520  Biso   1.000  C
  C523     1.0000 0.66790  0.00000  0.45960  Biso   1.000  C
  H328     1.0000 0.65260  0.00000  0.43220  Biso   1.000  H
  C524     1.0000 0.71440  0.00000  0.45960  Biso   1.000  C
  H329     1.0000 0.58280  0.00000  0.53050  Biso   1.000  H
  N36      1.0000 0.25840  0.50000  0.89610  Biso   1.000  N
  C525     1.0000 0.33000  0.50000  0.77520  Biso   1.000  C
  H330     1.0000 0.34700  0.50000  0.74890  Biso   1.000  H
  C526     1.0000 0.28270  0.50000  0.85520  Biso   1.000  C
  C527     1.0000 0.16790  0.50000  0.95960  Biso   1.000  C
  H331     1.0000 0.15260  0.50000  0.93220  Biso   1.000  H
  C528     1.0000 0.21440  0.50000  0.95960  Biso   1.000  C
  H332     1.0000 0.08280  0.50000  0.03050  Biso   1.000  H
  N37      1.0000 0.00000  0.24160  0.39610  Biso   1.000  N
  C529     1.0000 0.00000  0.17000  0.27520  Biso   1.000  C
  H333     1.0000 0.00000  0.15300  0.24890  Biso   1.000  H
  C530     1.0000 0.00000  0.21730  0.35520  Biso   1.000  C
  C531     1.0000 0.00000  0.33210  0.45960  Biso   1.000  C
  H334     1.0000 0.00000  0.34740  0.43220  Biso   1.000  H
  C532     1.0000 0.00000  0.28560  0.45960  Biso   1.000  C
  H335     1.0000 0.00000  0.41720  0.53050  Biso   1.000  H
  N38      1.0000 0.50000  0.74160  0.89610  Biso   1.000  N
  C533     1.0000 0.50000  0.67000  0.77520  Biso   1.000  C
  H336     1.0000 0.50000  0.65300  0.74890  Biso   1.000  H
  C534     1.0000 0.50000  0.71730  0.85520  Biso   1.000  C
  C535     1.0000 0.50000  0.83210  0.95960  Biso   1.000  C
  H337     1.0000 0.50000  0.84740  0.93220  Biso   1.000  H
  C536     1.0000 0.50000  0.78560  0.95960  Biso   1.000  C
  H338     1.0000 0.50000  0.91720  0.03050  Biso   1.000  H
  N39      1.0000 0.00000  0.75840  0.39610  Biso   1.000  N
  C537     1.0000 0.00000  0.83000  0.27520  Biso   1.000  C
  H339     1.0000 0.00000  0.84700  0.24890  Biso   1.000  H
  C538     1.0000 0.00000  0.78270  0.35520  Biso   1.000  C
  C539     1.0000 0.00000  0.66790  0.45960  Biso   1.000  C
  H340     1.0000 0.00000  0.65260  0.43220  Biso   1.000  H
  C540     1.0000 0.00000  0.71440  0.45960  Biso   1.000  C
  H341     1.0000 0.00000  0.58280  0.53050  Biso   1.000  H
  N40      1.0000 0.50000  0.25840  0.89610  Biso   1.000  N
  C541     1.0000 0.50000  0.33000  0.77520  Biso   1.000  C
  H342     1.0000 0.50000  0.34700  0.74890  Biso   1.000  H
  C542     1.0000 0.50000  0.28270  0.85520  Biso   1.000  C
  C543     1.0000 0.50000  0.16790  0.95960  Biso   1.000  C
  H343     1.0000 0.50000  0.15260  0.93220  Biso   1.000  H
  C544     1.0000 0.50000  0.21440  0.95960  Biso   1.000  C
  H344     1.0000 0.50000  0.08280  0.03050  Biso   1.000  H
  N41      1.0000 0.75840  0.00000  0.60390  Biso   1.000  N
  C545     1.0000 0.83000  0.00000  0.72480  Biso   1.000  C
  H345     1.0000 0.84700  0.00000  0.75110  Biso   1.000  H
  C546     1.0000 0.78270  0.00000  0.64480  Biso   1.000  C
  C547     1.0000 0.66790  0.00000  0.54040  Biso   1.000  C
  H346     1.0000 0.65260  0.00000  0.56780  Biso   1.000  H
  C548     1.0000 0.71440  0.00000  0.54040  Biso   1.000  C
  H347     1.0000 0.58280  0.00000  0.46950  Biso   1.000  H
  N42      1.0000 0.25840  0.50000  0.10390  Biso   1.000  N
  C549     1.0000 0.33000  0.50000  0.22480  Biso   1.000  C
  H348     1.0000 0.34700  0.50000  0.25110  Biso   1.000  H
  C550     1.0000 0.28270  0.50000  0.14480  Biso   1.000  C
  C551     1.0000 0.16790  0.50000  0.04040  Biso   1.000  C
  H349     1.0000 0.15260  0.50000  0.06780  Biso   1.000  H
  C552     1.0000 0.21440  0.50000  0.04040  Biso   1.000  C
  H350     1.0000 0.08280  0.50000  0.96950  Biso   1.000  H
  N43      1.0000 0.24160  0.00000  0.60390  Biso   1.000  N
  C553     1.0000 0.17000  0.00000  0.72480  Biso   1.000  C
  H351     1.0000 0.15300  0.00000  0.75110  Biso   1.000  H
  C554     1.0000 0.21730  0.00000  0.64480  Biso   1.000  C
  C555     1.0000 0.33210  0.00000  0.54040  Biso   1.000  C
  H352     1.0000 0.34740  0.00000  0.56780  Biso   1.000  H
  C556     1.0000 0.28560  0.00000  0.54040  Biso   1.000  C
  H353     1.0000 0.41720  0.00000  0.46950  Biso   1.000  H
  N44      1.0000 0.74160  0.50000  0.10390  Biso   1.000  N
  C557     1.0000 0.67000  0.50000  0.22480  Biso   1.000  C
  H354     1.0000 0.65300  0.50000  0.25110  Biso   1.000  H
  C558     1.0000 0.71730  0.50000  0.14480  Biso   1.000  C
  C559     1.0000 0.83210  0.50000  0.04040  Biso   1.000  C
  H355     1.0000 0.84740  0.50000  0.06780  Biso   1.000  H
  C560     1.0000 0.78560  0.50000  0.04040  Biso   1.000  C
  H356     1.0000 0.91720  0.50000  0.96950  Biso   1.000  H
  N45      1.0000 0.00000  0.24160  0.60390  Biso   1.000  N
  C561     1.0000 0.00000  0.17000  0.72480  Biso   1.000  C
  H357     1.0000 0.00000  0.15300  0.75110  Biso   1.000  H
  C562     1.0000 0.00000  0.21730  0.64480  Biso   1.000  C
  C563     1.0000 0.00000  0.33210  0.54040  Biso   1.000  C
  H358     1.0000 0.00000  0.34740  0.56780  Biso   1.000  H
  C564     1.0000 0.00000  0.28560  0.54040  Biso   1.000  C
  H359     1.0000 0.00000  0.41720  0.46950  Biso   1.000  H
  N46      1.0000 0.50000  0.74160  0.10390  Biso   1.000  N
  C565     1.0000 0.50000  0.67000  0.22480  Biso   1.000  C
  H360     1.0000 0.50000  0.65300  0.25110  Biso   1.000  H
  C566     1.0000 0.50000  0.71730  0.14480  Biso   1.000  C
  C567     1.0000 0.50000  0.83210  0.04040  Biso   1.000  C
  H361     1.0000 0.50000  0.84740  0.06780  Biso   1.000  H
  C568     1.0000 0.50000  0.78560  0.04040  Biso   1.000  C
  H362     1.0000 0.50000  0.91720  0.96950  Biso   1.000  H
  N47      1.0000 0.00000  0.75840  0.60390  Biso   1.000  N
  C569     1.0000 0.00000  0.83000  0.72480  Biso   1.000  C
  H363     1.0000 0.00000  0.84700  0.75110  Biso   1.000  H
  C570     1.0000 0.00000  0.78270  0.64480  Biso   1.000  C
  C571     1.0000 0.00000  0.66790  0.54040  Biso   1.000  C
  H364     1.0000 0.00000  0.65260  0.56780  Biso   1.000  H
  C572     1.0000 0.00000  0.71440  0.54040  Biso   1.000  C
  H365     1.0000 0.00000  0.58280  0.46950  Biso   1.000  H
  N48      1.0000 0.50000  0.25840  0.10390  Biso   1.000  N
  C573     1.0000 0.50000  0.33000  0.22480  Biso   1.000  C
  H366     1.0000 0.50000  0.34700  0.25110  Biso   1.000  H
  C574     1.0000 0.50000  0.28270  0.14480  Biso   1.000  C
  C575     1.0000 0.50000  0.16790  0.04040  Biso   1.000  C
  H367     1.0000 0.50000  0.15260  0.06780  Biso   1.000  H
  C576     1.0000 0.50000  0.21440  0.04040  Biso   1.000  C
  H368     1.0000 0.50000  0.08280  0.96950  Biso   1.000  H
  C577     1.0000 0.50000  0.15870  0.18380  Biso   1.000  C
  H369     1.0000 0.50000  0.14110  0.15780  Biso   1.000  H
  C578     1.0000 0.50000  0.20880  0.26130  Biso   1.000  C
  C579     1.0000 0.50000  0.23490  0.30370  Biso   1.000  C
  C580     1.0000 0.00000  0.65870  0.68380  Biso   1.000  C
  H370     1.0000 0.00000  0.64110  0.65780  Biso   1.000  H
  C581     1.0000 0.00000  0.70880  0.76130  Biso   1.000  C
  C582     1.0000 0.00000  0.73490  0.80370  Biso   1.000  C
  C583     1.0000 0.50000  0.84130  0.18380  Biso   1.000  C
  H371     1.0000 0.50000  0.85890  0.15780  Biso   1.000  H
  C584     1.0000 0.50000  0.79120  0.26130  Biso   1.000  C
  C585     1.0000 0.50000  0.76510  0.30370  Biso   1.000  C
  C586     1.0000 0.00000  0.34130  0.68380  Biso   1.000  C
  H372     1.0000 0.00000  0.35890  0.65780  Biso   1.000  H
  C587     1.0000 0.00000  0.29120  0.76130  Biso   1.000  C
  C588     1.0000 0.00000  0.26510  0.80370  Biso   1.000  C
  C589     1.0000 0.84130  0.50000  0.18380  Biso   1.000  C
  H373     1.0000 0.85890  0.50000  0.15780  Biso   1.000  H
  C590     1.0000 0.79120  0.50000  0.26130  Biso   1.000  C
  C591     1.0000 0.76510  0.50000  0.30370  Biso   1.000  C
  C592     1.0000 0.34130  0.00000  0.68380  Biso   1.000  C
  H374     1.0000 0.35890  0.00000  0.65780  Biso   1.000  H
  C593     1.0000 0.29120  0.00000  0.76130  Biso   1.000  C
  C594     1.0000 0.26510  0.00000  0.80370  Biso   1.000  C
  C595     1.0000 0.15870  0.50000  0.18380  Biso   1.000  C
  H375     1.0000 0.14110  0.50000  0.15780  Biso   1.000  H
  C596     1.0000 0.20880  0.50000  0.26130  Biso   1.000  C
  C597     1.0000 0.23490  0.50000  0.30370  Biso   1.000  C
  C598     1.0000 0.65870  0.00000  0.68380  Biso   1.000  C
  H376     1.0000 0.64110  0.00000  0.65780  Biso   1.000  H
  C599     1.0000 0.70880  0.00000  0.76130  Biso   1.000  C
  C600     1.0000 0.73490  0.00000  0.80370  Biso   1.000  C
  C601     1.0000 0.50000  0.15870  0.81620  Biso   1.000  C
  H377     1.0000 0.50000  0.14110  0.84220  Biso   1.000  H
  C602     1.0000 0.50000  0.20880  0.73870  Biso   1.000  C
  C603     1.0000 0.50000  0.23490  0.69630  Biso   1.000  C
  C604     1.0000 0.00000  0.65870  0.31620  Biso   1.000  C
  H378     1.0000 0.00000  0.64110  0.34220  Biso   1.000  H
  C605     1.0000 0.00000  0.70880  0.23870  Biso   1.000  C
  C606     1.0000 0.00000  0.73490  0.19630  Biso   1.000  C
  C607     1.0000 0.50000  0.84130  0.81620  Biso   1.000  C
  H379     1.0000 0.50000  0.85890  0.84220  Biso   1.000  H
  C608     1.0000 0.50000  0.79120  0.73870  Biso   1.000  C
  C609     1.0000 0.50000  0.76510  0.69630  Biso   1.000  C
  C610     1.0000 0.00000  0.34130  0.31620  Biso   1.000  C
  H380     1.0000 0.00000  0.35890  0.34220  Biso   1.000  H
  C611     1.0000 0.00000  0.29120  0.23870  Biso   1.000  C
  C612     1.0000 0.00000  0.26510  0.19630  Biso   1.000  C
  C613     1.0000 0.15870  0.50000  0.81620  Biso   1.000  C
  H381     1.0000 0.14110  0.50000  0.84220  Biso   1.000  H
  C614     1.0000 0.20880  0.50000  0.73870  Biso   1.000  C
  C615     1.0000 0.23490  0.50000  0.69630  Biso   1.000  C
  C616     1.0000 0.65870  0.00000  0.31620  Biso   1.000  C
  H382     1.0000 0.64110  0.00000  0.34220  Biso   1.000  H
  C617     1.0000 0.70880  0.00000  0.23870  Biso   1.000  C
  C618     1.0000 0.73490  0.00000  0.19630  Biso   1.000  C
  C619     1.0000 0.84130  0.50000  0.81620  Biso   1.000  C
  H383     1.0000 0.85890  0.50000  0.84220  Biso   1.000  H
  C620     1.0000 0.79120  0.50000  0.73870  Biso   1.000  C
  C621     1.0000 0.76510  0.50000  0.69630  Biso   1.000  C
  C622     1.0000 0.34130  0.00000  0.31620  Biso   1.000  C
  H384     1.0000 0.35890  0.00000  0.34220  Biso   1.000  H
  C623     1.0000 0.29120  0.00000  0.23870  Biso   1.000  C
  C624     1.0000 0.26510  0.00000  0.19630  Biso   1.000  C
  C625     1.0000 0.26120  0.00000  0.50000  Biso   1.000  C
  H385     1.0000 0.22980  0.00000  0.50000  Biso   1.000  H
  C626     1.0000 0.40640  0.00000  0.50000  Biso   1.000  C
  C627     1.0000 0.35700  0.00000  0.50000  Biso   1.000  C
  C628     1.0000 0.76120  0.50000  0.00000  Biso   1.000  C
  H386     1.0000 0.72980  0.50000  0.00000  Biso   1.000  H
  C629     1.0000 0.90640  0.50000  0.00000  Biso   1.000  C
  C630     1.0000 0.85700  0.50000  0.00000  Biso   1.000  C
  C631     1.0000 0.73880  0.00000  0.50000  Biso   1.000  C
  H387     1.0000 0.77020  0.00000  0.50000  Biso   1.000  H
  C632     1.0000 0.59360  0.00000  0.50000  Biso   1.000  C
  C633     1.0000 0.64300  0.00000  0.50000  Biso   1.000  C
  C634     1.0000 0.23880  0.50000  0.00000  Biso   1.000  C
  H388     1.0000 0.27020  0.50000  0.00000  Biso   1.000  H
  C635     1.0000 0.09360  0.50000  0.00000  Biso   1.000  C
  C636     1.0000 0.14300  0.50000  0.00000  Biso   1.000  C
  C637     1.0000 0.00000  0.26120  0.50000  Biso   1.000  C
  H389     1.0000 0.00000  0.22980  0.50000  Biso   1.000  H
  C638     1.0000 0.00000  0.40640  0.50000  Biso   1.000  C
  C639     1.0000 0.00000  0.35700  0.50000  Biso   1.000  C
  C640     1.0000 0.50000  0.76120  0.00000  Biso   1.000  C
  H390     1.0000 0.50000  0.72980  0.00000  Biso   1.000  H
  C641     1.0000 0.50000  0.90640  0.00000  Biso   1.000  C
  C642     1.0000 0.50000  0.85700  0.00000  Biso   1.000  C
  C643     1.0000 0.00000  0.73880  0.50000  Biso   1.000  C
  H391     1.0000 0.00000  0.77020  0.50000  Biso   1.000  H
  C644     1.0000 0.00000  0.59360  0.50000  Biso   1.000  C
  C645     1.0000 0.00000  0.64300  0.50000  Biso   1.000  C
  C646     1.0000 0.50000  0.23880  0.00000  Biso   1.000  C
  H392     1.0000 0.50000  0.27020  0.00000  Biso   1.000  H
  C647     1.0000 0.50000  0.09360  0.00000  Biso   1.000  C
  C648     1.0000 0.50000  0.14300  0.00000  Biso   1.000  C
