data_image0
_cell_length_a       22.2737
_cell_length_b       29.146
_cell_length_c       13.8719
_cell_angle_alpha    90
_cell_angle_beta     108.451
_cell_angle_gamma    90

_symmetry_space_group_name_H-M    "P 1"
_symmetry_int_tables_number       1

loop_
  _symmetry_equiv_pos_as_xyz
  'x, y, z'

loop_
  _atom_site_label
  _atom_site_occupancy
  _atom_site_fract_x
  _atom_site_fract_y
  _atom_site_fract_z
  _atom_site_thermal_displace_type
  _atom_site_B_iso_or_equiv
  _atom_site_type_symbol
  C1       1.0000 0.43070  0.22577  0.38894  Biso   1.000  C
  H1       1.0000 0.44510  0.25550  0.38600  Biso   1.000  H
  C2       1.0000 0.41850  0.19875  0.30347  Biso   1.000  C
  H2       1.0000 0.42530  0.21030  0.24530  Biso   1.000  H
  C3       1.0000 0.39627  0.15456  0.30390  Biso   1.000  C
  C4       1.0000 0.38715  0.14032  0.39305  Biso   1.000  C
  H3       1.0000 0.37140  0.11110  0.39700  Biso   1.000  H
  C5       1.0000 0.40110  0.16885  0.47604  Biso   1.000  C
  H4       1.0000 0.39500  0.15790  0.53520  Biso   1.000  H
  C6       1.0000 0.38593  0.12348  0.21565  Biso   1.000  C
  C7       1.0000 0.42570  0.12456  0.15595  Biso   1.000  C
  H5       1.0000 0.45770  0.14650  0.16960  Biso   1.000  H
  C8       1.0000 0.41919  0.09431  0.07754  Biso   1.000  C
  H6       1.0000 0.44760  0.09530  0.04080  Biso   1.000  H
  C9       1.0000 0.37020  0.06196  0.05214  Biso   1.000  C
  C10      1.0000 0.32852  0.06232  0.10849  Biso   1.000  C
  H7       1.0000 0.29430  0.04230  0.09150  Biso   1.000  H
  C11      1.0000 0.33719  0.09178  0.18876  Biso   1.000  C
  H8       1.0000 0.30940  0.09040  0.22650  Biso   1.000  H
  C12      1.0000 0.40120  0.03236  0.90774  Biso   1.000  C
  C13      1.0000 0.40623  0.07209  0.85576  Biso   1.000  C
  H9       1.0000 0.38290  0.09790  0.86110  Biso   1.000  H
  C14      1.0000 0.44537  0.07387  0.79643  Biso   1.000  C
  H10      1.0000 0.44920  0.10130  0.76470  Biso   1.000  H
  C15      1.0000 0.47919  0.03581  0.78279  Biso   1.000  C
  C16      1.0000 0.47088  0.99578  0.83199  Biso   1.000  C
  H11      1.0000 0.49120  0.96910  0.82230  Biso   1.000  H
  C17      1.0000 0.43392  0.99439  0.89402  Biso   1.000  C
  H12      1.0000 0.43090  0.96720  0.92740  Biso   1.000  H
  C18      1.0000 0.32580  0.98930  0.96958  Biso   1.000  C
  C19      1.0000 0.33677  0.96037  0.05172  Biso   1.000  C
  H13      1.0000 0.36990  0.96630  0.11090  Biso   1.000  H
  C20      1.0000 0.29860  0.92254  0.04631  Biso   1.000  C
  H14      1.0000 0.30630  0.90320  0.10230  Biso   1.000  H
  C21      1.0000 0.24943  0.91282  0.95994  Biso   1.000  C
  C22      1.0000 0.24148  0.94120  0.87691  Biso   1.000  C
  H15      1.0000 0.20960  0.93470  0.81650  Biso   1.000  H
  C23      1.0000 0.27922  0.97849  0.88156  Biso   1.000  C
  H16      1.0000 0.27320  0.99670  0.82430  Biso   1.000  H
  C24      1.0000 0.20538  0.87400  0.95527  Biso   1.000  C
  C25      1.0000 0.13916  0.88407  0.92230  Biso   1.000  C
  H17      1.0000 0.12460  0.91380  0.90520  Biso   1.000  H
  C26      1.0000 0.09760  0.84840  0.91674  Biso   1.000  C
  H18      1.0000 0.05470  0.85500  0.90030  Biso   1.000  H
  N1       1.0000 0.11670  0.80323  0.93439  Biso   1.000  N
  C27      1.0000 0.17613  0.79721  0.96272  Biso   1.000  C
  H19      1.0000 0.19060  0.76730  0.97800  Biso   1.000  H
  C28      1.0000 0.22124  0.83081  0.97290  Biso   1.000  C
  H20      1.0000 0.26380  0.82270  0.99280  Biso   1.000  H
  C29      1.0000 0.41341  0.20771  0.77274  Biso   1.000  C
  C30      1.0000 0.35873  0.20069  0.81221  Biso   1.000  C
  C31      1.0000 0.29734  0.20303  0.75159  Biso   1.000  C
  H21      1.0000 0.28830  0.20760  0.68210  Biso   1.000  H
  C32      1.0000 0.24837  0.19872  0.79182  Biso   1.000  C
  H22      1.0000 0.20690  0.20010  0.74830  Biso   1.000  H
  C33      1.0000 0.25864  0.19246  0.89374  Biso   1.000  C
  C34      1.0000 0.32002  0.18750  0.95212  Biso   1.000  C
  H23      1.0000 0.32910  0.18090  0.02090  Biso   1.000  H
  C35      1.0000 0.36922  0.19197  0.91269  Biso   1.000  C
  H24      1.0000 0.41060  0.18900  0.95570  Biso   1.000  H
  C36      1.0000 0.20671  0.19040  0.93952  Biso   1.000  C
  C37      1.0000 0.14691  0.20408  0.88915  Biso   1.000  C
  H25      1.0000 0.13710  0.21420  0.82240  Biso   1.000  H
  C38      1.0000 0.10012  0.20332  0.93507  Biso   1.000  C
  H26      1.0000 0.05970  0.21340  0.89850  Biso   1.000  H
  C39      1.0000 0.11120  0.18824  0.03224  Biso   1.000  C
  C40      1.0000 0.17044  0.17301  0.08119  Biso   1.000  C
  H27      1.0000 0.17970  0.16200  0.14720  Biso   1.000  H
  C41      1.0000 0.21767  0.17325  0.03628  Biso   1.000  C
  H28      1.0000 0.25740  0.16170  0.07180  Biso   1.000  H
  C42      1.0000 0.06273  0.18976  0.08527  Biso   1.000  C
  Co1      1.0000 0.45770  0.25075  0.61322  Biso   1.000  Co
  N2       1.0000 0.42299  0.21150  0.47603  Biso   1.000  N
  N3       1.0000 0.36373  0.03025  0.97395  Biso   1.000  N
  O1       1.0000 0.46720  0.20545  0.83569  Biso   1.000  O
  O2       1.0000 0.40006  0.21650  0.67864  Biso   1.000  O
  O3       1.0000 0.07464  0.17008  0.16958  Biso   1.000  O
  O4       1.0000 0.01244  0.21141  0.04295  Biso   1.000  O
  H29      1.0000 0.47180  0.29730  0.77670  Biso   1.000  H
  C43      1.0000 0.20630  0.87340  0.95200  Biso   1.000  C
  C44      1.0000 0.17280  0.86470  0.02190  Biso   1.000  C
  H30      1.0000 0.17980  0.88300  0.07940  Biso   1.000  H
  C45      1.0000 0.12950  0.82890  0.00390  Biso   1.000  C
  H31      1.0000 0.10780  0.82580  0.05080  Biso   1.000  H
  N4       1.0000 0.11620  0.80126  0.93590  Biso   1.000  N
  C46      1.0000 0.16110  0.80130  0.87730  Biso   1.000  C
  H32      1.0000 0.16110  0.77700  0.83390  Biso   1.000  H
  C47      1.0000 0.20360  0.83740  0.88670  Biso   1.000  C
  H33      1.0000 0.23080  0.83710  0.84780  Biso   1.000  H
  H34      1.0000 0.52860  0.27420  0.79170  Biso   1.000  H
  C48      1.0000 0.93070  0.72577  0.38894  Biso   1.000  C
  H35      1.0000 0.94510  0.75550  0.38600  Biso   1.000  H
  C49      1.0000 0.91850  0.69875  0.30347  Biso   1.000  C
  H36      1.0000 0.92530  0.71030  0.24530  Biso   1.000  H
  C50      1.0000 0.89627  0.65456  0.30390  Biso   1.000  C
  C51      1.0000 0.88715  0.64032  0.39305  Biso   1.000  C
  H37      1.0000 0.87140  0.61110  0.39700  Biso   1.000  H
  C52      1.0000 0.90110  0.66885  0.47604  Biso   1.000  C
  H38      1.0000 0.89500  0.65790  0.53520  Biso   1.000  H
  C53      1.0000 0.88593  0.62348  0.21565  Biso   1.000  C
  C54      1.0000 0.92570  0.62456  0.15595  Biso   1.000  C
  H39      1.0000 0.95770  0.64650  0.16960  Biso   1.000  H
  C55      1.0000 0.91919  0.59431  0.07754  Biso   1.000  C
  H40      1.0000 0.94760  0.59530  0.04080  Biso   1.000  H
  C56      1.0000 0.87020  0.56196  0.05214  Biso   1.000  C
  C57      1.0000 0.82852  0.56232  0.10849  Biso   1.000  C
  H41      1.0000 0.79430  0.54230  0.09150  Biso   1.000  H
  C58      1.0000 0.83719  0.59178  0.18876  Biso   1.000  C
  H42      1.0000 0.80940  0.59040  0.22650  Biso   1.000  H
  C59      1.0000 0.90120  0.53236  0.90774  Biso   1.000  C
  C60      1.0000 0.90623  0.57209  0.85576  Biso   1.000  C
  H43      1.0000 0.88290  0.59790  0.86110  Biso   1.000  H
  C61      1.0000 0.94537  0.57387  0.79643  Biso   1.000  C
  H44      1.0000 0.94920  0.60130  0.76470  Biso   1.000  H
  C62      1.0000 0.97919  0.53581  0.78279  Biso   1.000  C
  C63      1.0000 0.97088  0.49578  0.83199  Biso   1.000  C
  H45      1.0000 0.99120  0.46910  0.82230  Biso   1.000  H
  C64      1.0000 0.93392  0.49439  0.89402  Biso   1.000  C
  H46      1.0000 0.93090  0.46720  0.92740  Biso   1.000  H
  C65      1.0000 0.82580  0.48930  0.96958  Biso   1.000  C
  C66      1.0000 0.83677  0.46037  0.05172  Biso   1.000  C
  H47      1.0000 0.86990  0.46630  0.11090  Biso   1.000  H
  C67      1.0000 0.79860  0.42254  0.04631  Biso   1.000  C
  H48      1.0000 0.80630  0.40320  0.10230  Biso   1.000  H
  C68      1.0000 0.74943  0.41282  0.95994  Biso   1.000  C
  C69      1.0000 0.74148  0.44120  0.87691  Biso   1.000  C
  H49      1.0000 0.70960  0.43470  0.81650  Biso   1.000  H
  C70      1.0000 0.77922  0.47849  0.88156  Biso   1.000  C
  H50      1.0000 0.77320  0.49670  0.82430  Biso   1.000  H
  C71      1.0000 0.70538  0.37400  0.95527  Biso   1.000  C
  C72      1.0000 0.63916  0.38407  0.92230  Biso   1.000  C
  H51      1.0000 0.62460  0.41380  0.90520  Biso   1.000  H
  C73      1.0000 0.59760  0.34840  0.91674  Biso   1.000  C
  H52      1.0000 0.55470  0.35500  0.90030  Biso   1.000  H
  N5       1.0000 0.61670  0.30323  0.93439  Biso   1.000  N
  C74      1.0000 0.67613  0.29721  0.96272  Biso   1.000  C
  H53      1.0000 0.69060  0.26730  0.97800  Biso   1.000  H
  C75      1.0000 0.72124  0.33081  0.97290  Biso   1.000  C
  H54      1.0000 0.76380  0.32270  0.99280  Biso   1.000  H
  C76      1.0000 0.91341  0.70771  0.77274  Biso   1.000  C
  C77      1.0000 0.85873  0.70069  0.81221  Biso   1.000  C
  C78      1.0000 0.79734  0.70303  0.75159  Biso   1.000  C
  H55      1.0000 0.78830  0.70760  0.68210  Biso   1.000  H
  C79      1.0000 0.74837  0.69872  0.79182  Biso   1.000  C
  H56      1.0000 0.70690  0.70010  0.74830  Biso   1.000  H
  C80      1.0000 0.75864  0.69246  0.89374  Biso   1.000  C
  C81      1.0000 0.82002  0.68750  0.95212  Biso   1.000  C
  H57      1.0000 0.82910  0.68090  0.02090  Biso   1.000  H
  C82      1.0000 0.86922  0.69197  0.91269  Biso   1.000  C
  H58      1.0000 0.91060  0.68900  0.95570  Biso   1.000  H
  C83      1.0000 0.70671  0.69040  0.93952  Biso   1.000  C
  C84      1.0000 0.64691  0.70408  0.88915  Biso   1.000  C
  H59      1.0000 0.63710  0.71420  0.82240  Biso   1.000  H
  C85      1.0000 0.60012  0.70332  0.93507  Biso   1.000  C
  H60      1.0000 0.55970  0.71340  0.89850  Biso   1.000  H
  C86      1.0000 0.61120  0.68824  0.03224  Biso   1.000  C
  C87      1.0000 0.67044  0.67301  0.08119  Biso   1.000  C
  H61      1.0000 0.67970  0.66200  0.14720  Biso   1.000  H
  C88      1.0000 0.71767  0.67325  0.03628  Biso   1.000  C
  H62      1.0000 0.75740  0.66170  0.07180  Biso   1.000  H
  C89      1.0000 0.56273  0.68976  0.08527  Biso   1.000  C
  Co2      1.0000 0.95770  0.75075  0.61322  Biso   1.000  Co
  N6       1.0000 0.92299  0.71150  0.47603  Biso   1.000  N
  N7       1.0000 0.86373  0.53025  0.97395  Biso   1.000  N
  O5       1.0000 0.96720  0.70545  0.83569  Biso   1.000  O
  O6       1.0000 0.90006  0.71650  0.67864  Biso   1.000  O
  O7       1.0000 0.57464  0.67008  0.16958  Biso   1.000  O
  O8       1.0000 0.51244  0.71141  0.04295  Biso   1.000  O
  H63      1.0000 0.97180  0.79730  0.77670  Biso   1.000  H
  C90      1.0000 0.70630  0.37340  0.95200  Biso   1.000  C
  C91      1.0000 0.67280  0.36470  0.02190  Biso   1.000  C
  H64      1.0000 0.67980  0.38300  0.07940  Biso   1.000  H
  C92      1.0000 0.62950  0.32890  0.00390  Biso   1.000  C
  H65      1.0000 0.60780  0.32580  0.05080  Biso   1.000  H
  N8       1.0000 0.61620  0.30126  0.93590  Biso   1.000  N
  C93      1.0000 0.66110  0.30130  0.87730  Biso   1.000  C
  H66      1.0000 0.66110  0.27700  0.83390  Biso   1.000  H
  C94      1.0000 0.70360  0.33740  0.88670  Biso   1.000  C
  H67      1.0000 0.73080  0.33710  0.84780  Biso   1.000  H
  H68      1.0000 0.02860  0.77420  0.79170  Biso   1.000  H
  C95      1.0000 0.56930  0.22577  0.11106  Biso   1.000  C
  H69      1.0000 0.55490  0.25550  0.11400  Biso   1.000  H
  C96      1.0000 0.58150  0.19875  0.19653  Biso   1.000  C
  H70      1.0000 0.57470  0.21030  0.25470  Biso   1.000  H
  C97      1.0000 0.60373  0.15456  0.19610  Biso   1.000  C
  C98      1.0000 0.61285  0.14032  0.10695  Biso   1.000  C
  H71      1.0000 0.62860  0.11110  0.10300  Biso   1.000  H
  C99      1.0000 0.59890  0.16885  0.02396  Biso   1.000  C
  H72      1.0000 0.60500  0.15790  0.96480  Biso   1.000  H
  C100     1.0000 0.61407  0.12348  0.28435  Biso   1.000  C
  C101     1.0000 0.57430  0.12456  0.34405  Biso   1.000  C
  H73      1.0000 0.54230  0.14650  0.33040  Biso   1.000  H
  C102     1.0000 0.58081  0.09431  0.42246  Biso   1.000  C
  H74      1.0000 0.55240  0.09530  0.45920  Biso   1.000  H
  C103     1.0000 0.62980  0.06196  0.44786  Biso   1.000  C
  C104     1.0000 0.67148  0.06232  0.39151  Biso   1.000  C
  H75      1.0000 0.70570  0.04230  0.40850  Biso   1.000  H
  C105     1.0000 0.66281  0.09178  0.31124  Biso   1.000  C
  H76      1.0000 0.69060  0.09040  0.27350  Biso   1.000  H
  C106     1.0000 0.59880  0.03236  0.59226  Biso   1.000  C
  C107     1.0000 0.59377  0.07209  0.64424  Biso   1.000  C
  H77      1.0000 0.61710  0.09790  0.63890  Biso   1.000  H
  C108     1.0000 0.55463  0.07387  0.70357  Biso   1.000  C
  H78      1.0000 0.55080  0.10130  0.73530  Biso   1.000  H
  C109     1.0000 0.52081  0.03581  0.71721  Biso   1.000  C
  C110     1.0000 0.52912  0.99578  0.66801  Biso   1.000  C
  H79      1.0000 0.50880  0.96910  0.67770  Biso   1.000  H
  C111     1.0000 0.56608  0.99439  0.60598  Biso   1.000  C
  H80      1.0000 0.56910  0.96720  0.57260  Biso   1.000  H
  C112     1.0000 0.67420  0.98930  0.53042  Biso   1.000  C
  C113     1.0000 0.66323  0.96037  0.44828  Biso   1.000  C
  H81      1.0000 0.63010  0.96630  0.38910  Biso   1.000  H
  C114     1.0000 0.70140  0.92254  0.45369  Biso   1.000  C
  H82      1.0000 0.69370  0.90320  0.39770  Biso   1.000  H
  C115     1.0000 0.75057  0.91282  0.54006  Biso   1.000  C
  C116     1.0000 0.75852  0.94120  0.62309  Biso   1.000  C
  H83      1.0000 0.79040  0.93470  0.68350  Biso   1.000  H
  C117     1.0000 0.72078  0.97849  0.61844  Biso   1.000  C
  H84      1.0000 0.72680  0.99670  0.67570  Biso   1.000  H
  C118     1.0000 0.79462  0.87400  0.54473  Biso   1.000  C
  C119     1.0000 0.86084  0.88407  0.57770  Biso   1.000  C
  H85      1.0000 0.87540  0.91380  0.59480  Biso   1.000  H
  C120     1.0000 0.90240  0.84840  0.58326  Biso   1.000  C
  H86      1.0000 0.94530  0.85500  0.59970  Biso   1.000  H
  N9       1.0000 0.88330  0.80323  0.56561  Biso   1.000  N
  C121     1.0000 0.82387  0.79721  0.53728  Biso   1.000  C
  H87      1.0000 0.80940  0.76730  0.52200  Biso   1.000  H
  C122     1.0000 0.77876  0.83081  0.52710  Biso   1.000  C
  H88      1.0000 0.73620  0.82270  0.50720  Biso   1.000  H
  C123     1.0000 0.58659  0.20771  0.72726  Biso   1.000  C
  C124     1.0000 0.64127  0.20069  0.68779  Biso   1.000  C
  C125     1.0000 0.70266  0.20303  0.74841  Biso   1.000  C
  H89      1.0000 0.71170  0.20760  0.81790  Biso   1.000  H
  C126     1.0000 0.75163  0.19872  0.70818  Biso   1.000  C
  H90      1.0000 0.79310  0.20010  0.75170  Biso   1.000  H
  C127     1.0000 0.74136  0.19246  0.60626  Biso   1.000  C
  C128     1.0000 0.67998  0.18750  0.54788  Biso   1.000  C
  H91      1.0000 0.67090  0.18090  0.47910  Biso   1.000  H
  C129     1.0000 0.63078  0.19197  0.58731  Biso   1.000  C
  H92      1.0000 0.58940  0.18900  0.54430  Biso   1.000  H
  C130     1.0000 0.79329  0.19040  0.56048  Biso   1.000  C
  C131     1.0000 0.85309  0.20408  0.61085  Biso   1.000  C
  H93      1.0000 0.86290  0.21420  0.67760  Biso   1.000  H
  C132     1.0000 0.89988  0.20332  0.56493  Biso   1.000  C
  H94      1.0000 0.94030  0.21340  0.60150  Biso   1.000  H
  C133     1.0000 0.88880  0.18824  0.46776  Biso   1.000  C
  C134     1.0000 0.82956  0.17301  0.41881  Biso   1.000  C
  H95      1.0000 0.82030  0.16200  0.35280  Biso   1.000  H
  C135     1.0000 0.78233  0.17325  0.46372  Biso   1.000  C
  H96      1.0000 0.74260  0.16170  0.42820  Biso   1.000  H
  C136     1.0000 0.93727  0.18976  0.41473  Biso   1.000  C
  Co3      1.0000 0.54230  0.25075  0.88678  Biso   1.000  Co
  N10      1.0000 0.57701  0.21150  0.02397  Biso   1.000  N
  N11      1.0000 0.63627  0.03025  0.52605  Biso   1.000  N
  O9       1.0000 0.53280  0.20545  0.66431  Biso   1.000  O
  O10      1.0000 0.59994  0.21650  0.82136  Biso   1.000  O
  O11      1.0000 0.92536  0.17008  0.33042  Biso   1.000  O
  O12      1.0000 0.98756  0.21141  0.45705  Biso   1.000  O
  H97      1.0000 0.52820  0.29730  0.72330  Biso   1.000  H
  C137     1.0000 0.79370  0.87340  0.54800  Biso   1.000  C
  C138     1.0000 0.82720  0.86470  0.47810  Biso   1.000  C
  H98      1.0000 0.82020  0.88300  0.42060  Biso   1.000  H
  C139     1.0000 0.87050  0.82890  0.49610  Biso   1.000  C
  H99      1.0000 0.89220  0.82580  0.44920  Biso   1.000  H
  N12      1.0000 0.88380  0.80126  0.56410  Biso   1.000  N
  C140     1.0000 0.83890  0.80130  0.62270  Biso   1.000  C
  H100     1.0000 0.83890  0.77700  0.66610  Biso   1.000  H
  C141     1.0000 0.79640  0.83740  0.61330  Biso   1.000  C
  H101     1.0000 0.76920  0.83710  0.65220  Biso   1.000  H
  H102     1.0000 0.47140  0.27420  0.70830  Biso   1.000  H
  C142     1.0000 0.06930  0.72577  0.11106  Biso   1.000  C
  H103     1.0000 0.05490  0.75550  0.11400  Biso   1.000  H
  C143     1.0000 0.08150  0.69875  0.19653  Biso   1.000  C
  H104     1.0000 0.07470  0.71030  0.25470  Biso   1.000  H
  C144     1.0000 0.10373  0.65456  0.19610  Biso   1.000  C
  C145     1.0000 0.11285  0.64032  0.10695  Biso   1.000  C
  H105     1.0000 0.12860  0.61110  0.10300  Biso   1.000  H
  C146     1.0000 0.09890  0.66885  0.02396  Biso   1.000  C
  H106     1.0000 0.10500  0.65790  0.96480  Biso   1.000  H
  C147     1.0000 0.11407  0.62348  0.28435  Biso   1.000  C
  C148     1.0000 0.07430  0.62456  0.34405  Biso   1.000  C
  H107     1.0000 0.04230  0.64650  0.33040  Biso   1.000  H
  C149     1.0000 0.08081  0.59431  0.42246  Biso   1.000  C
  H108     1.0000 0.05240  0.59530  0.45920  Biso   1.000  H
  C150     1.0000 0.12980  0.56196  0.44786  Biso   1.000  C
  C151     1.0000 0.17148  0.56232  0.39151  Biso   1.000  C
  H109     1.0000 0.20570  0.54230  0.40850  Biso   1.000  H
  C152     1.0000 0.16281  0.59178  0.31124  Biso   1.000  C
  H110     1.0000 0.19060  0.59040  0.27350  Biso   1.000  H
  C153     1.0000 0.09880  0.53236  0.59226  Biso   1.000  C
  C154     1.0000 0.09377  0.57209  0.64424  Biso   1.000  C
  H111     1.0000 0.11710  0.59790  0.63890  Biso   1.000  H
  C155     1.0000 0.05463  0.57387  0.70357  Biso   1.000  C
  H112     1.0000 0.05080  0.60130  0.73530  Biso   1.000  H
  C156     1.0000 0.02081  0.53581  0.71721  Biso   1.000  C
  C157     1.0000 0.02912  0.49578  0.66801  Biso   1.000  C
  H113     1.0000 0.00880  0.46910  0.67770  Biso   1.000  H
  C158     1.0000 0.06608  0.49439  0.60598  Biso   1.000  C
  H114     1.0000 0.06910  0.46720  0.57260  Biso   1.000  H
  C159     1.0000 0.17420  0.48930  0.53042  Biso   1.000  C
  C160     1.0000 0.16323  0.46037  0.44828  Biso   1.000  C
  H115     1.0000 0.13010  0.46630  0.38910  Biso   1.000  H
  C161     1.0000 0.20140  0.42254  0.45369  Biso   1.000  C
  H116     1.0000 0.19370  0.40320  0.39770  Biso   1.000  H
  C162     1.0000 0.25057  0.41282  0.54006  Biso   1.000  C
  C163     1.0000 0.25852  0.44120  0.62309  Biso   1.000  C
  H117     1.0000 0.29040  0.43470  0.68350  Biso   1.000  H
  C164     1.0000 0.22078  0.47849  0.61844  Biso   1.000  C
  H118     1.0000 0.22680  0.49670  0.67570  Biso   1.000  H
  C165     1.0000 0.29462  0.37400  0.54473  Biso   1.000  C
  C166     1.0000 0.36084  0.38407  0.57770  Biso   1.000  C
  H119     1.0000 0.37540  0.41380  0.59480  Biso   1.000  H
  C167     1.0000 0.40240  0.34840  0.58326  Biso   1.000  C
  H120     1.0000 0.44530  0.35500  0.59970  Biso   1.000  H
  N13      1.0000 0.38330  0.30323  0.56561  Biso   1.000  N
  C168     1.0000 0.32387  0.29721  0.53728  Biso   1.000  C
  H121     1.0000 0.30940  0.26730  0.52200  Biso   1.000  H
  C169     1.0000 0.27876  0.33081  0.52710  Biso   1.000  C
  H122     1.0000 0.23620  0.32270  0.50720  Biso   1.000  H
  C170     1.0000 0.08659  0.70771  0.72726  Biso   1.000  C
  C171     1.0000 0.14127  0.70069  0.68779  Biso   1.000  C
  C172     1.0000 0.20266  0.70303  0.74841  Biso   1.000  C
  H123     1.0000 0.21170  0.70760  0.81790  Biso   1.000  H
  C173     1.0000 0.25163  0.69872  0.70818  Biso   1.000  C
  H124     1.0000 0.29310  0.70010  0.75170  Biso   1.000  H
  C174     1.0000 0.24136  0.69246  0.60626  Biso   1.000  C
  C175     1.0000 0.17998  0.68750  0.54788  Biso   1.000  C
  H125     1.0000 0.17090  0.68090  0.47910  Biso   1.000  H
  C176     1.0000 0.13078  0.69197  0.58731  Biso   1.000  C
  H126     1.0000 0.08940  0.68900  0.54430  Biso   1.000  H
  C177     1.0000 0.29329  0.69040  0.56048  Biso   1.000  C
  C178     1.0000 0.35309  0.70408  0.61085  Biso   1.000  C
  H127     1.0000 0.36290  0.71420  0.67760  Biso   1.000  H
  C179     1.0000 0.39988  0.70332  0.56493  Biso   1.000  C
  H128     1.0000 0.44030  0.71340  0.60150  Biso   1.000  H
  C180     1.0000 0.38880  0.68824  0.46776  Biso   1.000  C
  C181     1.0000 0.32956  0.67301  0.41881  Biso   1.000  C
  H129     1.0000 0.32030  0.66200  0.35280  Biso   1.000  H
  C182     1.0000 0.28233  0.67325  0.46372  Biso   1.000  C
  H130     1.0000 0.24260  0.66170  0.42820  Biso   1.000  H
  C183     1.0000 0.43727  0.68976  0.41473  Biso   1.000  C
  Co4      1.0000 0.04230  0.75075  0.88678  Biso   1.000  Co
  N14      1.0000 0.07701  0.71150  0.02397  Biso   1.000  N
  N15      1.0000 0.13627  0.53025  0.52605  Biso   1.000  N
  O13      1.0000 0.03280  0.70545  0.66431  Biso   1.000  O
  O14      1.0000 0.09994  0.71650  0.82136  Biso   1.000  O
  O15      1.0000 0.42536  0.67008  0.33042  Biso   1.000  O
  O16      1.0000 0.48756  0.71141  0.45705  Biso   1.000  O
  H131     1.0000 0.02820  0.79730  0.72330  Biso   1.000  H
  C184     1.0000 0.29370  0.37340  0.54800  Biso   1.000  C
  C185     1.0000 0.32720  0.36470  0.47810  Biso   1.000  C
  H132     1.0000 0.32020  0.38300  0.42060  Biso   1.000  H
  C186     1.0000 0.37050  0.32890  0.49610  Biso   1.000  C
  H133     1.0000 0.39220  0.32580  0.44920  Biso   1.000  H
  N16      1.0000 0.38380  0.30126  0.56410  Biso   1.000  N
  C187     1.0000 0.33890  0.30130  0.62270  Biso   1.000  C
  H134     1.0000 0.33890  0.27700  0.66610  Biso   1.000  H
  C188     1.0000 0.29640  0.33740  0.61330  Biso   1.000  C
  H135     1.0000 0.26920  0.33710  0.65220  Biso   1.000  H
  H136     1.0000 0.97140  0.77420  0.70830  Biso   1.000  H
  C189     1.0000 0.56930  0.77423  0.61106  Biso   1.000  C
  H137     1.0000 0.55490  0.74450  0.61400  Biso   1.000  H
  C190     1.0000 0.58150  0.80125  0.69653  Biso   1.000  C
  H138     1.0000 0.57470  0.78970  0.75470  Biso   1.000  H
  C191     1.0000 0.60373  0.84544  0.69610  Biso   1.000  C
  C192     1.0000 0.61285  0.85968  0.60695  Biso   1.000  C
  H139     1.0000 0.62860  0.88890  0.60300  Biso   1.000  H
  C193     1.0000 0.59890  0.83115  0.52396  Biso   1.000  C
  H140     1.0000 0.60500  0.84210  0.46480  Biso   1.000  H
  C194     1.0000 0.61407  0.87652  0.78435  Biso   1.000  C
  C195     1.0000 0.57430  0.87544  0.84405  Biso   1.000  C
  H141     1.0000 0.54230  0.85350  0.83040  Biso   1.000  H
  C196     1.0000 0.58081  0.90569  0.92246  Biso   1.000  C
  H142     1.0000 0.55240  0.90470  0.95920  Biso   1.000  H
  C197     1.0000 0.62980  0.93804  0.94786  Biso   1.000  C
  C198     1.0000 0.67148  0.93768  0.89151  Biso   1.000  C
  H143     1.0000 0.70570  0.95770  0.90850  Biso   1.000  H
  C199     1.0000 0.66281  0.90822  0.81124  Biso   1.000  C
  H144     1.0000 0.69060  0.90960  0.77350  Biso   1.000  H
  C200     1.0000 0.59880  0.96764  0.09226  Biso   1.000  C
  C201     1.0000 0.59377  0.92791  0.14424  Biso   1.000  C
  H145     1.0000 0.61710  0.90210  0.13890  Biso   1.000  H
  C202     1.0000 0.55463  0.92613  0.20357  Biso   1.000  C
  H146     1.0000 0.55080  0.89870  0.23530  Biso   1.000  H
  C203     1.0000 0.52081  0.96419  0.21721  Biso   1.000  C
  C204     1.0000 0.52912  0.00422  0.16801  Biso   1.000  C
  H147     1.0000 0.50880  0.03090  0.17770  Biso   1.000  H
  C205     1.0000 0.56608  0.00561  0.10598  Biso   1.000  C
  H148     1.0000 0.56910  0.03280  0.07260  Biso   1.000  H
  C206     1.0000 0.67420  0.01070  0.03042  Biso   1.000  C
  C207     1.0000 0.66323  0.03963  0.94828  Biso   1.000  C
  H149     1.0000 0.63010  0.03370  0.88910  Biso   1.000  H
  C208     1.0000 0.70140  0.07746  0.95369  Biso   1.000  C
  H150     1.0000 0.69370  0.09680  0.89770  Biso   1.000  H
  C209     1.0000 0.75057  0.08718  0.04006  Biso   1.000  C
  C210     1.0000 0.75852  0.05880  0.12309  Biso   1.000  C
  H151     1.0000 0.79040  0.06530  0.18350  Biso   1.000  H
  C211     1.0000 0.72078  0.02151  0.11844  Biso   1.000  C
  H152     1.0000 0.72680  0.00330  0.17570  Biso   1.000  H
  C212     1.0000 0.79462  0.12600  0.04473  Biso   1.000  C
  C213     1.0000 0.86084  0.11593  0.07770  Biso   1.000  C
  H153     1.0000 0.87540  0.08620  0.09480  Biso   1.000  H
  C214     1.0000 0.90240  0.15160  0.08326  Biso   1.000  C
  H154     1.0000 0.94530  0.14500  0.09970  Biso   1.000  H
  N17      1.0000 0.88330  0.19677  0.06561  Biso   1.000  N
  C215     1.0000 0.82387  0.20279  0.03728  Biso   1.000  C
  H155     1.0000 0.80940  0.23270  0.02200  Biso   1.000  H
  C216     1.0000 0.77876  0.16919  0.02710  Biso   1.000  C
  H156     1.0000 0.73620  0.17730  0.00720  Biso   1.000  H
  C217     1.0000 0.58659  0.79229  0.22726  Biso   1.000  C
  C218     1.0000 0.64127  0.79931  0.18779  Biso   1.000  C
  C219     1.0000 0.70266  0.79697  0.24841  Biso   1.000  C
  H157     1.0000 0.71170  0.79240  0.31790  Biso   1.000  H
  C220     1.0000 0.75163  0.80128  0.20818  Biso   1.000  C
  H158     1.0000 0.79310  0.79990  0.25170  Biso   1.000  H
  C221     1.0000 0.74136  0.80754  0.10626  Biso   1.000  C
  C222     1.0000 0.67998  0.81250  0.04788  Biso   1.000  C
  H159     1.0000 0.67090  0.81910  0.97910  Biso   1.000  H
  C223     1.0000 0.63078  0.80803  0.08731  Biso   1.000  C
  H160     1.0000 0.58940  0.81100  0.04430  Biso   1.000  H
  C224     1.0000 0.79329  0.80960  0.06048  Biso   1.000  C
  C225     1.0000 0.85309  0.79592  0.11085  Biso   1.000  C
  H161     1.0000 0.86290  0.78580  0.17760  Biso   1.000  H
  C226     1.0000 0.89988  0.79668  0.06493  Biso   1.000  C
  H162     1.0000 0.94030  0.78660  0.10150  Biso   1.000  H
  C227     1.0000 0.88880  0.81176  0.96776  Biso   1.000  C
  C228     1.0000 0.82956  0.82699  0.91881  Biso   1.000  C
  H163     1.0000 0.82030  0.83800  0.85280  Biso   1.000  H
  C229     1.0000 0.78233  0.82675  0.96372  Biso   1.000  C
  H164     1.0000 0.74260  0.83830  0.92820  Biso   1.000  H
  C230     1.0000 0.93727  0.81024  0.91473  Biso   1.000  C
  Co5      1.0000 0.54230  0.74925  0.38678  Biso   1.000  Co
  N18      1.0000 0.57701  0.78850  0.52397  Biso   1.000  N
  N19      1.0000 0.63627  0.96975  0.02605  Biso   1.000  N
  O17      1.0000 0.53280  0.79455  0.16431  Biso   1.000  O
  O18      1.0000 0.59994  0.78350  0.32136  Biso   1.000  O
  O19      1.0000 0.92536  0.82992  0.83042  Biso   1.000  O
  O20      1.0000 0.98756  0.78859  0.95705  Biso   1.000  O
  H165     1.0000 0.52820  0.70270  0.22330  Biso   1.000  H
  C231     1.0000 0.79370  0.12660  0.04800  Biso   1.000  C
  C232     1.0000 0.82720  0.13530  0.97810  Biso   1.000  C
  H166     1.0000 0.82020  0.11700  0.92060  Biso   1.000  H
  C233     1.0000 0.87050  0.17110  0.99610  Biso   1.000  C
  H167     1.0000 0.89220  0.17420  0.94920  Biso   1.000  H
  N20      1.0000 0.88380  0.19874  0.06410  Biso   1.000  N
  C234     1.0000 0.83890  0.19870  0.12270  Biso   1.000  C
  H168     1.0000 0.83890  0.22300  0.16610  Biso   1.000  H
  C235     1.0000 0.79640  0.16260  0.11330  Biso   1.000  C
  H169     1.0000 0.76920  0.16290  0.15220  Biso   1.000  H
  H170     1.0000 0.47140  0.72580  0.20830  Biso   1.000  H
  C236     1.0000 0.06930  0.27423  0.61106  Biso   1.000  C
  H171     1.0000 0.05490  0.24450  0.61400  Biso   1.000  H
  C237     1.0000 0.08150  0.30125  0.69653  Biso   1.000  C
  H172     1.0000 0.07470  0.28970  0.75470  Biso   1.000  H
  C238     1.0000 0.10373  0.34544  0.69610  Biso   1.000  C
  C239     1.0000 0.11285  0.35968  0.60695  Biso   1.000  C
  H173     1.0000 0.12860  0.38890  0.60300  Biso   1.000  H
  C240     1.0000 0.09890  0.33115  0.52396  Biso   1.000  C
  H174     1.0000 0.10500  0.34210  0.46480  Biso   1.000  H
  C241     1.0000 0.11407  0.37652  0.78435  Biso   1.000  C
  C242     1.0000 0.07430  0.37544  0.84405  Biso   1.000  C
  H175     1.0000 0.04230  0.35350  0.83040  Biso   1.000  H
  C243     1.0000 0.08081  0.40569  0.92246  Biso   1.000  C
  H176     1.0000 0.05240  0.40470  0.95920  Biso   1.000  H
  C244     1.0000 0.12980  0.43804  0.94786  Biso   1.000  C
  C245     1.0000 0.17148  0.43768  0.89151  Biso   1.000  C
  H177     1.0000 0.20570  0.45770  0.90850  Biso   1.000  H
  C246     1.0000 0.16281  0.40822  0.81124  Biso   1.000  C
  H178     1.0000 0.19060  0.40960  0.77350  Biso   1.000  H
  C247     1.0000 0.09880  0.46764  0.09226  Biso   1.000  C
  C248     1.0000 0.09377  0.42791  0.14424  Biso   1.000  C
  H179     1.0000 0.11710  0.40210  0.13890  Biso   1.000  H
  C249     1.0000 0.05463  0.42613  0.20357  Biso   1.000  C
  H180     1.0000 0.05080  0.39870  0.23530  Biso   1.000  H
  C250     1.0000 0.02081  0.46419  0.21721  Biso   1.000  C
  C251     1.0000 0.02912  0.50422  0.16801  Biso   1.000  C
  H181     1.0000 0.00880  0.53090  0.17770  Biso   1.000  H
  C252     1.0000 0.06608  0.50561  0.10598  Biso   1.000  C
  H182     1.0000 0.06910  0.53280  0.07260  Biso   1.000  H
  C253     1.0000 0.17420  0.51070  0.03042  Biso   1.000  C
  C254     1.0000 0.16323  0.53963  0.94828  Biso   1.000  C
  H183     1.0000 0.13010  0.53370  0.88910  Biso   1.000  H
  C255     1.0000 0.20140  0.57746  0.95369  Biso   1.000  C
  H184     1.0000 0.19370  0.59680  0.89770  Biso   1.000  H
  C256     1.0000 0.25057  0.58718  0.04006  Biso   1.000  C
  C257     1.0000 0.25852  0.55880  0.12309  Biso   1.000  C
  H185     1.0000 0.29040  0.56530  0.18350  Biso   1.000  H
  C258     1.0000 0.22078  0.52151  0.11844  Biso   1.000  C
  H186     1.0000 0.22680  0.50330  0.17570  Biso   1.000  H
  C259     1.0000 0.29462  0.62600  0.04473  Biso   1.000  C
  C260     1.0000 0.36084  0.61593  0.07770  Biso   1.000  C
  H187     1.0000 0.37540  0.58620  0.09480  Biso   1.000  H
  C261     1.0000 0.40240  0.65160  0.08326  Biso   1.000  C
  H188     1.0000 0.44530  0.64500  0.09970  Biso   1.000  H
  N21      1.0000 0.38330  0.69677  0.06561  Biso   1.000  N
  C262     1.0000 0.32387  0.70279  0.03728  Biso   1.000  C
  H189     1.0000 0.30940  0.73270  0.02200  Biso   1.000  H
  C263     1.0000 0.27876  0.66919  0.02710  Biso   1.000  C
  H190     1.0000 0.23620  0.67730  0.00720  Biso   1.000  H
  C264     1.0000 0.08659  0.29229  0.22726  Biso   1.000  C
  C265     1.0000 0.14127  0.29931  0.18779  Biso   1.000  C
  C266     1.0000 0.20266  0.29697  0.24841  Biso   1.000  C
  H191     1.0000 0.21170  0.29240  0.31790  Biso   1.000  H
  C267     1.0000 0.25163  0.30128  0.20818  Biso   1.000  C
  H192     1.0000 0.29310  0.29990  0.25170  Biso   1.000  H
  C268     1.0000 0.24136  0.30754  0.10626  Biso   1.000  C
  C269     1.0000 0.17998  0.31250  0.04788  Biso   1.000  C
  H193     1.0000 0.17090  0.31910  0.97910  Biso   1.000  H
  C270     1.0000 0.13078  0.30803  0.08731  Biso   1.000  C
  H194     1.0000 0.08940  0.31100  0.04430  Biso   1.000  H
  C271     1.0000 0.29329  0.30960  0.06048  Biso   1.000  C
  C272     1.0000 0.35309  0.29592  0.11085  Biso   1.000  C
  H195     1.0000 0.36290  0.28580  0.17760  Biso   1.000  H
  C273     1.0000 0.39988  0.29668  0.06493  Biso   1.000  C
  H196     1.0000 0.44030  0.28660  0.10150  Biso   1.000  H
  C274     1.0000 0.38880  0.31176  0.96776  Biso   1.000  C
  C275     1.0000 0.32956  0.32699  0.91881  Biso   1.000  C
  H197     1.0000 0.32030  0.33800  0.85280  Biso   1.000  H
  C276     1.0000 0.28233  0.32675  0.96372  Biso   1.000  C
  H198     1.0000 0.24260  0.33830  0.92820  Biso   1.000  H
  C277     1.0000 0.43727  0.31024  0.91473  Biso   1.000  C
  Co6      1.0000 0.04230  0.24925  0.38678  Biso   1.000  Co
  N22      1.0000 0.07701  0.28850  0.52397  Biso   1.000  N
  N23      1.0000 0.13627  0.46975  0.02605  Biso   1.000  N
  O21      1.0000 0.03280  0.29455  0.16431  Biso   1.000  O
  O22      1.0000 0.09994  0.28350  0.32136  Biso   1.000  O
  O23      1.0000 0.42536  0.32992  0.83042  Biso   1.000  O
  O24      1.0000 0.48756  0.28859  0.95705  Biso   1.000  O
  H199     1.0000 0.02820  0.20270  0.22330  Biso   1.000  H
  C278     1.0000 0.29370  0.62660  0.04800  Biso   1.000  C
  C279     1.0000 0.32720  0.63530  0.97810  Biso   1.000  C
  H200     1.0000 0.32020  0.61700  0.92060  Biso   1.000  H
  C280     1.0000 0.37050  0.67110  0.99610  Biso   1.000  C
  H201     1.0000 0.39220  0.67420  0.94920  Biso   1.000  H
  N24      1.0000 0.38380  0.69874  0.06410  Biso   1.000  N
  C281     1.0000 0.33890  0.69870  0.12270  Biso   1.000  C
  H202     1.0000 0.33890  0.72300  0.16610  Biso   1.000  H
  C282     1.0000 0.29640  0.66260  0.11330  Biso   1.000  C
  H203     1.0000 0.26920  0.66290  0.15220  Biso   1.000  H
  H204     1.0000 0.97140  0.22580  0.20830  Biso   1.000  H
  C283     1.0000 0.43070  0.77423  0.88894  Biso   1.000  C
  H205     1.0000 0.44510  0.74450  0.88600  Biso   1.000  H
  C284     1.0000 0.41850  0.80125  0.80347  Biso   1.000  C
  H206     1.0000 0.42530  0.78970  0.74530  Biso   1.000  H
  C285     1.0000 0.39627  0.84544  0.80390  Biso   1.000  C
  C286     1.0000 0.38715  0.85968  0.89305  Biso   1.000  C
  H207     1.0000 0.37140  0.88890  0.89700  Biso   1.000  H
  C287     1.0000 0.40110  0.83115  0.97604  Biso   1.000  C
  H208     1.0000 0.39500  0.84210  0.03520  Biso   1.000  H
  C288     1.0000 0.38593  0.87652  0.71565  Biso   1.000  C
  C289     1.0000 0.42570  0.87544  0.65595  Biso   1.000  C
  H209     1.0000 0.45770  0.85350  0.66960  Biso   1.000  H
  C290     1.0000 0.41919  0.90569  0.57754  Biso   1.000  C
  H210     1.0000 0.44760  0.90470  0.54080  Biso   1.000  H
  C291     1.0000 0.37020  0.93804  0.55214  Biso   1.000  C
  C292     1.0000 0.32852  0.93768  0.60849  Biso   1.000  C
  H211     1.0000 0.29430  0.95770  0.59150  Biso   1.000  H
  C293     1.0000 0.33719  0.90822  0.68876  Biso   1.000  C
  H212     1.0000 0.30940  0.90960  0.72650  Biso   1.000  H
  C294     1.0000 0.40120  0.96764  0.40774  Biso   1.000  C
  C295     1.0000 0.40623  0.92791  0.35576  Biso   1.000  C
  H213     1.0000 0.38290  0.90210  0.36110  Biso   1.000  H
  C296     1.0000 0.44537  0.92613  0.29643  Biso   1.000  C
  H214     1.0000 0.44920  0.89870  0.26470  Biso   1.000  H
  C297     1.0000 0.47919  0.96419  0.28279  Biso   1.000  C
  C298     1.0000 0.47088  0.00422  0.33199  Biso   1.000  C
  H215     1.0000 0.49120  0.03090  0.32230  Biso   1.000  H
  C299     1.0000 0.43392  0.00561  0.39402  Biso   1.000  C
  H216     1.0000 0.43090  0.03280  0.42740  Biso   1.000  H
  C300     1.0000 0.32580  0.01070  0.46958  Biso   1.000  C
  C301     1.0000 0.33677  0.03963  0.55172  Biso   1.000  C
  H217     1.0000 0.36990  0.03370  0.61090  Biso   1.000  H
  C302     1.0000 0.29860  0.07746  0.54631  Biso   1.000  C
  H218     1.0000 0.30630  0.09680  0.60230  Biso   1.000  H
  C303     1.0000 0.24943  0.08718  0.45994  Biso   1.000  C
  C304     1.0000 0.24148  0.05880  0.37691  Biso   1.000  C
  H219     1.0000 0.20960  0.06530  0.31650  Biso   1.000  H
  C305     1.0000 0.27922  0.02151  0.38156  Biso   1.000  C
  H220     1.0000 0.27320  0.00330  0.32430  Biso   1.000  H
  C306     1.0000 0.20538  0.12600  0.45527  Biso   1.000  C
  C307     1.0000 0.13916  0.11593  0.42230  Biso   1.000  C
  H221     1.0000 0.12460  0.08620  0.40520  Biso   1.000  H
  C308     1.0000 0.09760  0.15160  0.41674  Biso   1.000  C
  H222     1.0000 0.05470  0.14500  0.40030  Biso   1.000  H
  N25      1.0000 0.11670  0.19677  0.43439  Biso   1.000  N
  C309     1.0000 0.17613  0.20279  0.46272  Biso   1.000  C
  H223     1.0000 0.19060  0.23270  0.47800  Biso   1.000  H
  C310     1.0000 0.22124  0.16919  0.47290  Biso   1.000  C
  H224     1.0000 0.26380  0.17730  0.49280  Biso   1.000  H
  C311     1.0000 0.41341  0.79229  0.27274  Biso   1.000  C
  C312     1.0000 0.35873  0.79931  0.31221  Biso   1.000  C
  C313     1.0000 0.29734  0.79697  0.25159  Biso   1.000  C
  H225     1.0000 0.28830  0.79240  0.18210  Biso   1.000  H
  C314     1.0000 0.24837  0.80128  0.29182  Biso   1.000  C
  H226     1.0000 0.20690  0.79990  0.24830  Biso   1.000  H
  C315     1.0000 0.25864  0.80754  0.39374  Biso   1.000  C
  C316     1.0000 0.32002  0.81250  0.45212  Biso   1.000  C
  H227     1.0000 0.32910  0.81910  0.52090  Biso   1.000  H
  C317     1.0000 0.36922  0.80803  0.41269  Biso   1.000  C
  H228     1.0000 0.41060  0.81100  0.45570  Biso   1.000  H
  C318     1.0000 0.20671  0.80960  0.43952  Biso   1.000  C
  C319     1.0000 0.14691  0.79592  0.38915  Biso   1.000  C
  H229     1.0000 0.13710  0.78580  0.32240  Biso   1.000  H
  C320     1.0000 0.10012  0.79668  0.43507  Biso   1.000  C
  H230     1.0000 0.05970  0.78660  0.39850  Biso   1.000  H
  C321     1.0000 0.11120  0.81176  0.53224  Biso   1.000  C
  C322     1.0000 0.17044  0.82699  0.58119  Biso   1.000  C
  H231     1.0000 0.17970  0.83800  0.64720  Biso   1.000  H
  C323     1.0000 0.21767  0.82675  0.53628  Biso   1.000  C
  H232     1.0000 0.25740  0.83830  0.57180  Biso   1.000  H
  C324     1.0000 0.06273  0.81024  0.58527  Biso   1.000  C
  Co7      1.0000 0.45770  0.74925  0.11322  Biso   1.000  Co
  N26      1.0000 0.42299  0.78850  0.97603  Biso   1.000  N
  N27      1.0000 0.36373  0.96975  0.47395  Biso   1.000  N
  O25      1.0000 0.46720  0.79455  0.33569  Biso   1.000  O
  O26      1.0000 0.40006  0.78350  0.17864  Biso   1.000  O
  O27      1.0000 0.07464  0.82992  0.66958  Biso   1.000  O
  O28      1.0000 0.01244  0.78859  0.54295  Biso   1.000  O
  H233     1.0000 0.47180  0.70270  0.27670  Biso   1.000  H
  C325     1.0000 0.20630  0.12660  0.45200  Biso   1.000  C
  C326     1.0000 0.17280  0.13530  0.52190  Biso   1.000  C
  H234     1.0000 0.17980  0.11700  0.57940  Biso   1.000  H
  C327     1.0000 0.12950  0.17110  0.50390  Biso   1.000  C
  H235     1.0000 0.10780  0.17420  0.55080  Biso   1.000  H
  N28      1.0000 0.11620  0.19874  0.43590  Biso   1.000  N
  C328     1.0000 0.16110  0.19870  0.37730  Biso   1.000  C
  H236     1.0000 0.16110  0.22300  0.33390  Biso   1.000  H
  C329     1.0000 0.20360  0.16260  0.38670  Biso   1.000  C
  H237     1.0000 0.23080  0.16290  0.34780  Biso   1.000  H
  H238     1.0000 0.52860  0.72580  0.29170  Biso   1.000  H
  C330     1.0000 0.93070  0.27423  0.88894  Biso   1.000  C
  H239     1.0000 0.94510  0.24450  0.88600  Biso   1.000  H
  C331     1.0000 0.91850  0.30125  0.80347  Biso   1.000  C
  H240     1.0000 0.92530  0.28970  0.74530  Biso   1.000  H
  C332     1.0000 0.89627  0.34544  0.80390  Biso   1.000  C
  C333     1.0000 0.88715  0.35968  0.89305  Biso   1.000  C
  H241     1.0000 0.87140  0.38890  0.89700  Biso   1.000  H
  C334     1.0000 0.90110  0.33115  0.97604  Biso   1.000  C
  H242     1.0000 0.89500  0.34210  0.03520  Biso   1.000  H
  C335     1.0000 0.88593  0.37652  0.71565  Biso   1.000  C
  C336     1.0000 0.92570  0.37544  0.65595  Biso   1.000  C
  H243     1.0000 0.95770  0.35350  0.66960  Biso   1.000  H
  C337     1.0000 0.91919  0.40569  0.57754  Biso   1.000  C
  H244     1.0000 0.94760  0.40470  0.54080  Biso   1.000  H
  C338     1.0000 0.87020  0.43804  0.55214  Biso   1.000  C
  C339     1.0000 0.82852  0.43768  0.60849  Biso   1.000  C
  H245     1.0000 0.79430  0.45770  0.59150  Biso   1.000  H
  C340     1.0000 0.83719  0.40822  0.68876  Biso   1.000  C
  H246     1.0000 0.80940  0.40960  0.72650  Biso   1.000  H
  C341     1.0000 0.90120  0.46764  0.40774  Biso   1.000  C
  C342     1.0000 0.90623  0.42791  0.35576  Biso   1.000  C
  H247     1.0000 0.88290  0.40210  0.36110  Biso   1.000  H
  C343     1.0000 0.94537  0.42613  0.29643  Biso   1.000  C
  H248     1.0000 0.94920  0.39870  0.26470  Biso   1.000  H
  C344     1.0000 0.97919  0.46419  0.28279  Biso   1.000  C
  C345     1.0000 0.97088  0.50422  0.33199  Biso   1.000  C
  H249     1.0000 0.99120  0.53090  0.32230  Biso   1.000  H
  C346     1.0000 0.93392  0.50561  0.39402  Biso   1.000  C
  H250     1.0000 0.93090  0.53280  0.42740  Biso   1.000  H
  C347     1.0000 0.82580  0.51070  0.46958  Biso   1.000  C
  C348     1.0000 0.83677  0.53963  0.55172  Biso   1.000  C
  H251     1.0000 0.86990  0.53370  0.61090  Biso   1.000  H
  C349     1.0000 0.79860  0.57746  0.54631  Biso   1.000  C
  H252     1.0000 0.80630  0.59680  0.60230  Biso   1.000  H
  C350     1.0000 0.74943  0.58718  0.45994  Biso   1.000  C
  C351     1.0000 0.74148  0.55880  0.37691  Biso   1.000  C
  H253     1.0000 0.70960  0.56530  0.31650  Biso   1.000  H
  C352     1.0000 0.77922  0.52151  0.38156  Biso   1.000  C
  H254     1.0000 0.77320  0.50330  0.32430  Biso   1.000  H
  C353     1.0000 0.70538  0.62600  0.45527  Biso   1.000  C
  C354     1.0000 0.63916  0.61593  0.42230  Biso   1.000  C
  H255     1.0000 0.62460  0.58620  0.40520  Biso   1.000  H
  C355     1.0000 0.59760  0.65160  0.41674  Biso   1.000  C
  H256     1.0000 0.55470  0.64500  0.40030  Biso   1.000  H
  N29      1.0000 0.61670  0.69677  0.43439  Biso   1.000  N
  C356     1.0000 0.67613  0.70279  0.46272  Biso   1.000  C
  H257     1.0000 0.69060  0.73270  0.47800  Biso   1.000  H
  C357     1.0000 0.72124  0.66919  0.47290  Biso   1.000  C
  H258     1.0000 0.76380  0.67730  0.49280  Biso   1.000  H
  C358     1.0000 0.91341  0.29229  0.27274  Biso   1.000  C
  C359     1.0000 0.85873  0.29931  0.31221  Biso   1.000  C
  C360     1.0000 0.79734  0.29697  0.25159  Biso   1.000  C
  H259     1.0000 0.78830  0.29240  0.18210  Biso   1.000  H
  C361     1.0000 0.74837  0.30128  0.29182  Biso   1.000  C
  H260     1.0000 0.70690  0.29990  0.24830  Biso   1.000  H
  C362     1.0000 0.75864  0.30754  0.39374  Biso   1.000  C
  C363     1.0000 0.82002  0.31250  0.45212  Biso   1.000  C
  H261     1.0000 0.82910  0.31910  0.52090  Biso   1.000  H
  C364     1.0000 0.86922  0.30803  0.41269  Biso   1.000  C
  H262     1.0000 0.91060  0.31100  0.45570  Biso   1.000  H
  C365     1.0000 0.70671  0.30960  0.43952  Biso   1.000  C
  C366     1.0000 0.64691  0.29592  0.38915  Biso   1.000  C
  H263     1.0000 0.63710  0.28580  0.32240  Biso   1.000  H
  C367     1.0000 0.60012  0.29668  0.43507  Biso   1.000  C
  H264     1.0000 0.55970  0.28660  0.39850  Biso   1.000  H
  C368     1.0000 0.61120  0.31176  0.53224  Biso   1.000  C
  C369     1.0000 0.67044  0.32699  0.58119  Biso   1.000  C
  H265     1.0000 0.67970  0.33800  0.64720  Biso   1.000  H
  C370     1.0000 0.71767  0.32675  0.53628  Biso   1.000  C
  H266     1.0000 0.75740  0.33830  0.57180  Biso   1.000  H
  C371     1.0000 0.56273  0.31024  0.58527  Biso   1.000  C
  Co8      1.0000 0.95770  0.24925  0.11322  Biso   1.000  Co
  N30      1.0000 0.92299  0.28850  0.97603  Biso   1.000  N
  N31      1.0000 0.86373  0.46975  0.47395  Biso   1.000  N
  O29      1.0000 0.96720  0.29455  0.33569  Biso   1.000  O
  O30      1.0000 0.90006  0.28350  0.17864  Biso   1.000  O
  O31      1.0000 0.57464  0.32992  0.66958  Biso   1.000  O
  O32      1.0000 0.51244  0.28859  0.54295  Biso   1.000  O
  H267     1.0000 0.97180  0.20270  0.27670  Biso   1.000  H
  C372     1.0000 0.70630  0.62660  0.45200  Biso   1.000  C
  C373     1.0000 0.67280  0.63530  0.52190  Biso   1.000  C
  H268     1.0000 0.67980  0.61700  0.57940  Biso   1.000  H
  C374     1.0000 0.62950  0.67110  0.50390  Biso   1.000  C
  H269     1.0000 0.60780  0.67420  0.55080  Biso   1.000  H
  N32      1.0000 0.61620  0.69874  0.43590  Biso   1.000  N
  C375     1.0000 0.66110  0.69870  0.37730  Biso   1.000  C
  H270     1.0000 0.66110  0.72300  0.33390  Biso   1.000  H
  C376     1.0000 0.70360  0.66260  0.38670  Biso   1.000  C
  H271     1.0000 0.73080  0.66290  0.34780  Biso   1.000  H
  H272     1.0000 0.02860  0.22580  0.29170  Biso   1.000  H
  O33      1.0000 0.50000  0.29020  0.75000  Biso   1.000  O
  O34      1.0000 0.00000  0.79020  0.75000  Biso   1.000  O
  O35      1.0000 0.50000  0.70980  0.25000  Biso   1.000  O
  O36      1.0000 0.00000  0.20980  0.25000  Biso   1.000  O
