data_image0
_cell_length_a       22.8097
_cell_length_b       36.695
_cell_length_c       14.4183
_cell_angle_alpha    90
_cell_angle_beta     106.313
_cell_angle_gamma    90

_symmetry_space_group_name_H-M    "P 1"
_symmetry_int_tables_number       1

loop_
  _symmetry_equiv_pos_as_xyz
  'x, y, z'

loop_
  _atom_site_label
  _atom_site_occupancy
  _atom_site_fract_x
  _atom_site_fract_y
  _atom_site_fract_z
  _atom_site_thermal_displace_type
  _atom_site_B_iso_or_equiv
  _atom_site_type_symbol
  Co1      1.0000 0.85690  0.25883  0.03723  Biso   1.000  Co
  N1       1.0000 0.87644  0.20741  0.97266  Biso   1.000  N
  O1       1.0000 0.80542  0.27162  0.90603  Biso   1.000  O
  O2       1.0000 0.70689  0.26933  0.90876  Biso   1.000  O
  C1       1.0000 0.92290  0.18640  0.03330  Biso   1.000  C
  C2       1.0000 0.84450  0.19290  0.88480  Biso   1.000  C
  C3       1.0000 0.75071  0.27599  0.87189  Biso   1.000  C
  H1       1.0000 0.94470  0.19620  0.09520  Biso   1.000  H
  C4       1.0000 0.93730  0.15210  0.00640  Biso   1.000  C
  C5       1.0000 0.85950  0.16030  0.85340  Biso   1.000  C
  H2       1.0000 0.81240  0.20690  0.84220  Biso   1.000  H
  C6       1.0000 0.72429  0.28462  0.76690  Biso   1.000  C
  H3       1.0000 0.96940  0.13820  0.04910  Biso   1.000  H
  C7       1.0000 0.90830  0.13940  0.91300  Biso   1.000  C
  H4       1.0000 0.83770  0.15060  0.79150  Biso   1.000  H
  C8       1.0000 0.76533  0.30051  0.72390  Biso   1.000  C
  C9       1.0000 0.66253  0.28298  0.71729  Biso   1.000  C
  H5       1.0000 0.80660  0.30200  0.75730  Biso   1.000  H
  C10      1.0000 0.74433  0.31428  0.63020  Biso   1.000  C
  C11      1.0000 0.64183  0.29680  0.62370  Biso   1.000  C
  H6       1.0000 0.63500  0.27260  0.74660  Biso   1.000  H
  H7       1.0000 0.77170  0.32490  0.60110  Biso   1.000  H
  C12      1.0000 0.68267  0.31223  0.58020  Biso   1.000  C
  H8       1.0000 0.60050  0.29560  0.59050  Biso   1.000  H
  N2       1.0000 0.33454  0.80626  0.10307  Biso   1.000  N
  C13      1.0000 0.37969  0.82628  0.16610  Biso   1.000  C
  C14      1.0000 0.27412  0.81772  0.08070  Biso   1.000  C
  H9       1.0000 0.42000  0.81830  0.18170  Biso   1.000  H
  C15      1.0000 0.36520  0.85850  0.20680  Biso   1.000  C
  C16      1.0000 0.25958  0.84994  0.12010  Biso   1.000  C
  H10      1.0000 0.24350  0.80390  0.03950  Biso   1.000  H
  C17      1.0000 0.30527  0.87024  0.18399  Biso   1.000  C
  H11      1.0000 0.39580  0.87200  0.24900  Biso   1.000  H
  H12      1.0000 0.21930  0.85800  0.10380  Biso   1.000  H
  O3       1.0000 0.43405  0.25307  0.16219  Biso   1.000  O
  C18      1.0000 0.48844  0.24119  0.19320  Biso   1.000  C
  O4       1.0000 0.51235  0.21844  0.15030  Biso   1.000  O
  C19      1.0000 0.93020  0.10220  0.89000  Biso   1.000  C
  C20      1.0000 0.96930  0.08310  0.95050  Biso   1.000  C
  C21      1.0000 0.89600  0.08840  0.79900  Biso   1.000  C
  C22      1.0000 0.99150  0.04860  0.91440  Biso   1.000  C
  C23      1.0000 0.91320  0.05380  0.77100  Biso   1.000  C
  H13      1.0000 0.86150  0.10080  0.75750  Biso   1.000  H
  H14      1.0000 0.02610  0.03620  0.95580  Biso   1.000  H
  C24      1.0000 0.96114  0.03600  0.83270  Biso   1.000  C
  H15      1.0000 0.89130  0.04310  0.71000  Biso   1.000  H
  C25      1.0000 0.07430  0.97900  0.76460  Biso   1.000  C
  C26      1.0000 0.00520  0.01912  0.65320  Biso   1.000  C
  H16      1.0000 0.08410  0.96480  0.82290  Biso   1.000  H
  C27      1.0000 0.11330  0.97912  0.70590  Biso   1.000  C
  C28      1.0000 0.04320  0.01795  0.59320  Biso   1.000  C
  H17      1.0000 0.96750  0.03240  0.63380  Biso   1.000  H
  H18      1.0000 0.14980  0.96460  0.72250  Biso   1.000  H
  H19      1.0000 0.03160  0.03080  0.53280  Biso   1.000  H
  C29      1.0000 0.29251  0.90463  0.23130  Biso   1.000  C
  C30      1.0000 0.33240  0.91600  0.31730  Biso   1.000  C
  C31      1.0000 0.23966  0.92431  0.19010  Biso   1.000  C
  C32      1.0000 0.31950  0.94780  0.36190  Biso   1.000  C
  H20      1.0000 0.36760  0.90270  0.34540  Biso   1.000  H
  H21      1.0000 0.21260  0.91630  0.13270  Biso   1.000  H
  C33      1.0000 0.22707  0.95571  0.23370  Biso   1.000  C
  C34      1.0000 0.26728  0.96748  0.32046  Biso   1.000  C
  H22      1.0000 0.34630  0.95560  0.41970  Biso   1.000  H
  H23      1.0000 0.19190  0.96900  0.20540  Biso   1.000  H
  C35      1.0000 0.21750  0.03028  0.50010  Biso   1.000  C
  C36      1.0000 0.17700  0.03101  0.55660  Biso   1.000  C
  H24      1.0000 0.24290  0.05100  0.49900  Biso   1.000  H
  H25      1.0000 0.17490  0.05200  0.59540  Biso   1.000  H
  C37      1.0000 0.65325  0.33029  0.48360  Biso   1.000  C
  C38      1.0000 0.61435  0.30255  0.41230  Biso   1.000  C
  C39      1.0000 0.63060  0.26811  0.39200  Biso   1.000  C
  C40      1.0000 0.55718  0.31663  0.36328  Biso   1.000  C
  H26      1.0000 0.66880  0.25890  0.42460  Biso   1.000  H
  C41      1.0000 0.59000  0.24675  0.32247  Biso   1.000  C
  C42      1.0000 0.51705  0.29530  0.29380  Biso   1.000  C
  H27      1.0000 0.54600  0.34000  0.37690  Biso   1.000  H
  H28      1.0000 0.60110  0.22340  0.30890  Biso   1.000  H
  C43      1.0000 0.53365  0.26036  0.27440  Biso   1.000  C
  H29      1.0000 0.47900  0.30450  0.26030  Biso   1.000  H
  C44      1.0000 0.69956  0.34683  0.43620  Biso   1.000  C
  F1       1.0000 0.70619  0.32274  0.37058  Biso   1.000  F
  F2       1.0000 0.67423  0.37785  0.39396  Biso   1.000  F
  F3       1.0000 0.75331  0.35419  0.49981  Biso   1.000  F
  C45      1.0000 0.61995  0.35912  0.52845  Biso   1.000  C
  F4       1.0000 0.60359  0.38666  0.46707  Biso   1.000  F
  F5       1.0000 0.66030  0.37281  0.60787  Biso   1.000  F
  F6       1.0000 0.57687  0.34188  0.55787  Biso   1.000  F
  Co2      1.0000 0.35690  0.75883  0.03723  Biso   1.000  Co
  N3       1.0000 0.37644  0.70741  0.97266  Biso   1.000  N
  O5       1.0000 0.30542  0.77162  0.90603  Biso   1.000  O
  O6       1.0000 0.20689  0.76933  0.90876  Biso   1.000  O
  C46      1.0000 0.42290  0.68640  0.03330  Biso   1.000  C
  C47      1.0000 0.34450  0.69290  0.88480  Biso   1.000  C
  C48      1.0000 0.25071  0.77599  0.87189  Biso   1.000  C
  H30      1.0000 0.44470  0.69620  0.09520  Biso   1.000  H
  C49      1.0000 0.43730  0.65210  0.00640  Biso   1.000  C
  C50      1.0000 0.35950  0.66030  0.85340  Biso   1.000  C
  H31      1.0000 0.31240  0.70690  0.84220  Biso   1.000  H
  C51      1.0000 0.22429  0.78462  0.76690  Biso   1.000  C
  H32      1.0000 0.46940  0.63820  0.04910  Biso   1.000  H
  C52      1.0000 0.40830  0.63940  0.91300  Biso   1.000  C
  H33      1.0000 0.33770  0.65060  0.79150  Biso   1.000  H
  C53      1.0000 0.26533  0.80051  0.72390  Biso   1.000  C
  C54      1.0000 0.16253  0.78298  0.71729  Biso   1.000  C
  H34      1.0000 0.30660  0.80200  0.75730  Biso   1.000  H
  C55      1.0000 0.24433  0.81428  0.63020  Biso   1.000  C
  C56      1.0000 0.14183  0.79680  0.62370  Biso   1.000  C
  H35      1.0000 0.13500  0.77260  0.74660  Biso   1.000  H
  H36      1.0000 0.27170  0.82490  0.60110  Biso   1.000  H
  C57      1.0000 0.18267  0.81223  0.58020  Biso   1.000  C
  H37      1.0000 0.10050  0.79560  0.59050  Biso   1.000  H
  N4       1.0000 0.83454  0.30626  0.10307  Biso   1.000  N
  C58      1.0000 0.87969  0.32628  0.16610  Biso   1.000  C
  C59      1.0000 0.77412  0.31772  0.08070  Biso   1.000  C
  H38      1.0000 0.92000  0.31830  0.18170  Biso   1.000  H
  C60      1.0000 0.86520  0.35850  0.20680  Biso   1.000  C
  C61      1.0000 0.75958  0.34994  0.12010  Biso   1.000  C
  H39      1.0000 0.74350  0.30390  0.03950  Biso   1.000  H
  C62      1.0000 0.80527  0.37024  0.18399  Biso   1.000  C
  H40      1.0000 0.89580  0.37200  0.24900  Biso   1.000  H
  H41      1.0000 0.71930  0.35800  0.10380  Biso   1.000  H
  O7       1.0000 0.93405  0.75307  0.16219  Biso   1.000  O
  C63      1.0000 0.98844  0.74119  0.19320  Biso   1.000  C
  O8       1.0000 0.01235  0.71844  0.15030  Biso   1.000  O
  C64      1.0000 0.43020  0.60220  0.89000  Biso   1.000  C
  C65      1.0000 0.46930  0.58310  0.95050  Biso   1.000  C
  C66      1.0000 0.39600  0.58840  0.79900  Biso   1.000  C
  C67      1.0000 0.49150  0.54860  0.91440  Biso   1.000  C
  C68      1.0000 0.41320  0.55380  0.77100  Biso   1.000  C
  H42      1.0000 0.36150  0.60080  0.75750  Biso   1.000  H
  H43      1.0000 0.52610  0.53620  0.95580  Biso   1.000  H
  C69      1.0000 0.46114  0.53600  0.83270  Biso   1.000  C
  H44      1.0000 0.39130  0.54310  0.71000  Biso   1.000  H
  C70      1.0000 0.57430  0.47900  0.76460  Biso   1.000  C
  C71      1.0000 0.50520  0.51912  0.65320  Biso   1.000  C
  H45      1.0000 0.58410  0.46480  0.82290  Biso   1.000  H
  C72      1.0000 0.61330  0.47912  0.70590  Biso   1.000  C
  C73      1.0000 0.54320  0.51795  0.59320  Biso   1.000  C
  H46      1.0000 0.46750  0.53240  0.63380  Biso   1.000  H
  H47      1.0000 0.64980  0.46460  0.72250  Biso   1.000  H
  H48      1.0000 0.53160  0.53080  0.53280  Biso   1.000  H
  C74      1.0000 0.79251  0.40463  0.23130  Biso   1.000  C
  C75      1.0000 0.83240  0.41600  0.31730  Biso   1.000  C
  C76      1.0000 0.73966  0.42431  0.19010  Biso   1.000  C
  C77      1.0000 0.81950  0.44780  0.36190  Biso   1.000  C
  H49      1.0000 0.86760  0.40270  0.34540  Biso   1.000  H
  H50      1.0000 0.71260  0.41630  0.13270  Biso   1.000  H
  C78      1.0000 0.72707  0.45571  0.23370  Biso   1.000  C
  C79      1.0000 0.76728  0.46748  0.32046  Biso   1.000  C
  H51      1.0000 0.84630  0.45560  0.41970  Biso   1.000  H
  H52      1.0000 0.69190  0.46900  0.20540  Biso   1.000  H
  C80      1.0000 0.71750  0.53028  0.50010  Biso   1.000  C
  C81      1.0000 0.67700  0.53101  0.55660  Biso   1.000  C
  H53      1.0000 0.74290  0.55100  0.49900  Biso   1.000  H
  H54      1.0000 0.67490  0.55200  0.59540  Biso   1.000  H
  C82      1.0000 0.15325  0.83029  0.48360  Biso   1.000  C
  C83      1.0000 0.11435  0.80255  0.41230  Biso   1.000  C
  C84      1.0000 0.13060  0.76811  0.39200  Biso   1.000  C
  C85      1.0000 0.05718  0.81663  0.36328  Biso   1.000  C
  H55      1.0000 0.16880  0.75890  0.42460  Biso   1.000  H
  C86      1.0000 0.09000  0.74675  0.32247  Biso   1.000  C
  C87      1.0000 0.01705  0.79530  0.29380  Biso   1.000  C
  H56      1.0000 0.04600  0.84000  0.37690  Biso   1.000  H
  H57      1.0000 0.10110  0.72340  0.30890  Biso   1.000  H
  C88      1.0000 0.03365  0.76036  0.27440  Biso   1.000  C
  H58      1.0000 0.97900  0.80450  0.26030  Biso   1.000  H
  C89      1.0000 0.19956  0.84683  0.43620  Biso   1.000  C
  F7       1.0000 0.20619  0.82274  0.37058  Biso   1.000  F
  F8       1.0000 0.17423  0.87785  0.39396  Biso   1.000  F
  F9       1.0000 0.25331  0.85419  0.49981  Biso   1.000  F
  C90      1.0000 0.11995  0.85912  0.52845  Biso   1.000  C
  F10      1.0000 0.10359  0.88666  0.46707  Biso   1.000  F
  F11      1.0000 0.16030  0.87281  0.60787  Biso   1.000  F
  F12      1.0000 0.07687  0.84188  0.55787  Biso   1.000  F
  Co3      1.0000 0.14310  0.25883  0.96277  Biso   1.000  Co
  N5       1.0000 0.12356  0.20741  0.02734  Biso   1.000  N
  O9       1.0000 0.19458  0.27162  0.09397  Biso   1.000  O
  O10      1.0000 0.29311  0.26933  0.09124  Biso   1.000  O
  C91      1.0000 0.07710  0.18640  0.96670  Biso   1.000  C
  C92      1.0000 0.15550  0.19290  0.11520  Biso   1.000  C
  C93      1.0000 0.24929  0.27599  0.12811  Biso   1.000  C
  H59      1.0000 0.05530  0.19620  0.90480  Biso   1.000  H
  C94      1.0000 0.06270  0.15210  0.99360  Biso   1.000  C
  C95      1.0000 0.14050  0.16030  0.14660  Biso   1.000  C
  H60      1.0000 0.18760  0.20690  0.15780  Biso   1.000  H
  C96      1.0000 0.27571  0.28462  0.23310  Biso   1.000  C
  H61      1.0000 0.03060  0.13820  0.95090  Biso   1.000  H
  C97      1.0000 0.09170  0.13940  0.08700  Biso   1.000  C
  H62      1.0000 0.16230  0.15060  0.20850  Biso   1.000  H
  C98      1.0000 0.23467  0.30051  0.27610  Biso   1.000  C
  C99      1.0000 0.33747  0.28298  0.28271  Biso   1.000  C
  H63      1.0000 0.19340  0.30200  0.24270  Biso   1.000  H
  C100     1.0000 0.25567  0.31428  0.36980  Biso   1.000  C
  C101     1.0000 0.35817  0.29680  0.37630  Biso   1.000  C
  H64      1.0000 0.36500  0.27260  0.25340  Biso   1.000  H
  H65      1.0000 0.22830  0.32490  0.39890  Biso   1.000  H
  C102     1.0000 0.31733  0.31223  0.41980  Biso   1.000  C
  H66      1.0000 0.39950  0.29560  0.40950  Biso   1.000  H
  N6       1.0000 0.66546  0.80626  0.89693  Biso   1.000  N
  C103     1.0000 0.62031  0.82628  0.83390  Biso   1.000  C
  C104     1.0000 0.72588  0.81772  0.91930  Biso   1.000  C
  H67      1.0000 0.58000  0.81830  0.81830  Biso   1.000  H
  C105     1.0000 0.63480  0.85850  0.79320  Biso   1.000  C
  C106     1.0000 0.74042  0.84994  0.87990  Biso   1.000  C
  H68      1.0000 0.75650  0.80390  0.96050  Biso   1.000  H
  C107     1.0000 0.69473  0.87024  0.81601  Biso   1.000  C
  H69      1.0000 0.60420  0.87200  0.75100  Biso   1.000  H
  H70      1.0000 0.78070  0.85800  0.89620  Biso   1.000  H
  O11      1.0000 0.56595  0.25307  0.83781  Biso   1.000  O
  C108     1.0000 0.51156  0.24119  0.80680  Biso   1.000  C
  O12      1.0000 0.48765  0.21844  0.84970  Biso   1.000  O
  C109     1.0000 0.06980  0.10220  0.11000  Biso   1.000  C
  C110     1.0000 0.03070  0.08310  0.04950  Biso   1.000  C
  C111     1.0000 0.10400  0.08840  0.20100  Biso   1.000  C
  C112     1.0000 0.00850  0.04860  0.08560  Biso   1.000  C
  C113     1.0000 0.08680  0.05380  0.22900  Biso   1.000  C
  H71      1.0000 0.13850  0.10080  0.24250  Biso   1.000  H
  H72      1.0000 0.97390  0.03620  0.04420  Biso   1.000  H
  C114     1.0000 0.03886  0.03600  0.16730  Biso   1.000  C
  H73      1.0000 0.10870  0.04310  0.29000  Biso   1.000  H
  C115     1.0000 0.92570  0.97900  0.23540  Biso   1.000  C
  C116     1.0000 0.99480  0.01912  0.34680  Biso   1.000  C
  H74      1.0000 0.91590  0.96480  0.17710  Biso   1.000  H
  C117     1.0000 0.88670  0.97912  0.29410  Biso   1.000  C
  C118     1.0000 0.95680  0.01795  0.40680  Biso   1.000  C
  H75      1.0000 0.03250  0.03240  0.36620  Biso   1.000  H
  H76      1.0000 0.85020  0.96460  0.27750  Biso   1.000  H
  H77      1.0000 0.96840  0.03080  0.46720  Biso   1.000  H
  C119     1.0000 0.70749  0.90463  0.76870  Biso   1.000  C
  C120     1.0000 0.66760  0.91600  0.68270  Biso   1.000  C
  C121     1.0000 0.76034  0.92431  0.80990  Biso   1.000  C
  C122     1.0000 0.68050  0.94780  0.63810  Biso   1.000  C
  H78      1.0000 0.63240  0.90270  0.65460  Biso   1.000  H
  H79      1.0000 0.78740  0.91630  0.86730  Biso   1.000  H
  C123     1.0000 0.77293  0.95571  0.76630  Biso   1.000  C
  C124     1.0000 0.73272  0.96748  0.67954  Biso   1.000  C
  H80      1.0000 0.65370  0.95560  0.58030  Biso   1.000  H
  H81      1.0000 0.80810  0.96900  0.79460  Biso   1.000  H
  C125     1.0000 0.78250  0.03028  0.49990  Biso   1.000  C
  C126     1.0000 0.82300  0.03101  0.44340  Biso   1.000  C
  H82      1.0000 0.75710  0.05100  0.50100  Biso   1.000  H
  H83      1.0000 0.82510  0.05200  0.40460  Biso   1.000  H
  C127     1.0000 0.34675  0.33029  0.51640  Biso   1.000  C
  C128     1.0000 0.38565  0.30255  0.58770  Biso   1.000  C
  C129     1.0000 0.36940  0.26811  0.60800  Biso   1.000  C
  C130     1.0000 0.44282  0.31663  0.63672  Biso   1.000  C
  H84      1.0000 0.33120  0.25890  0.57540  Biso   1.000  H
  C131     1.0000 0.41000  0.24675  0.67753  Biso   1.000  C
  C132     1.0000 0.48295  0.29530  0.70620  Biso   1.000  C
  H85      1.0000 0.45400  0.34000  0.62310  Biso   1.000  H
  H86      1.0000 0.39890  0.22340  0.69110  Biso   1.000  H
  C133     1.0000 0.46635  0.26036  0.72560  Biso   1.000  C
  H87      1.0000 0.52100  0.30450  0.73970  Biso   1.000  H
  C134     1.0000 0.30044  0.34683  0.56380  Biso   1.000  C
  F13      1.0000 0.29381  0.32274  0.62942  Biso   1.000  F
  F14      1.0000 0.32577  0.37785  0.60604  Biso   1.000  F
  F15      1.0000 0.24669  0.35419  0.50019  Biso   1.000  F
  C135     1.0000 0.38005  0.35912  0.47155  Biso   1.000  C
  F16      1.0000 0.39641  0.38666  0.53293  Biso   1.000  F
  F17      1.0000 0.33970  0.37281  0.39213  Biso   1.000  F
  F18      1.0000 0.42313  0.34188  0.44213  Biso   1.000  F
  Co4      1.0000 0.64310  0.75883  0.96277  Biso   1.000  Co
  N7       1.0000 0.62356  0.70741  0.02734  Biso   1.000  N
  O13      1.0000 0.69458  0.77162  0.09397  Biso   1.000  O
  O14      1.0000 0.79311  0.76933  0.09124  Biso   1.000  O
  C136     1.0000 0.57710  0.68640  0.96670  Biso   1.000  C
  C137     1.0000 0.65550  0.69290  0.11520  Biso   1.000  C
  C138     1.0000 0.74929  0.77599  0.12811  Biso   1.000  C
  H88      1.0000 0.55530  0.69620  0.90480  Biso   1.000  H
  C139     1.0000 0.56270  0.65210  0.99360  Biso   1.000  C
  C140     1.0000 0.64050  0.66030  0.14660  Biso   1.000  C
  H89      1.0000 0.68760  0.70690  0.15780  Biso   1.000  H
  C141     1.0000 0.77571  0.78462  0.23310  Biso   1.000  C
  H90      1.0000 0.53060  0.63820  0.95090  Biso   1.000  H
  C142     1.0000 0.59170  0.63940  0.08700  Biso   1.000  C
  H91      1.0000 0.66230  0.65060  0.20850  Biso   1.000  H
  C143     1.0000 0.73467  0.80051  0.27610  Biso   1.000  C
  C144     1.0000 0.83747  0.78298  0.28271  Biso   1.000  C
  H92      1.0000 0.69340  0.80200  0.24270  Biso   1.000  H
  C145     1.0000 0.75567  0.81428  0.36980  Biso   1.000  C
  C146     1.0000 0.85817  0.79680  0.37630  Biso   1.000  C
  H93      1.0000 0.86500  0.77260  0.25340  Biso   1.000  H
  H94      1.0000 0.72830  0.82490  0.39890  Biso   1.000  H
  C147     1.0000 0.81733  0.81223  0.41980  Biso   1.000  C
  H95      1.0000 0.89950  0.79560  0.40950  Biso   1.000  H
  N8       1.0000 0.16546  0.30626  0.89693  Biso   1.000  N
  C148     1.0000 0.12031  0.32628  0.83390  Biso   1.000  C
  C149     1.0000 0.22588  0.31772  0.91930  Biso   1.000  C
  H96      1.0000 0.08000  0.31830  0.81830  Biso   1.000  H
  C150     1.0000 0.13480  0.35850  0.79320  Biso   1.000  C
  C151     1.0000 0.24042  0.34994  0.87990  Biso   1.000  C
  H97      1.0000 0.25650  0.30390  0.96050  Biso   1.000  H
  C152     1.0000 0.19473  0.37024  0.81601  Biso   1.000  C
  H98      1.0000 0.10420  0.37200  0.75100  Biso   1.000  H
  H99      1.0000 0.28070  0.35800  0.89620  Biso   1.000  H
  O15      1.0000 0.06595  0.75307  0.83781  Biso   1.000  O
  C153     1.0000 0.01156  0.74119  0.80680  Biso   1.000  C
  O16      1.0000 0.98765  0.71844  0.84970  Biso   1.000  O
  C154     1.0000 0.56980  0.60220  0.11000  Biso   1.000  C
  C155     1.0000 0.53070  0.58310  0.04950  Biso   1.000  C
  C156     1.0000 0.60400  0.58840  0.20100  Biso   1.000  C
  C157     1.0000 0.50850  0.54860  0.08560  Biso   1.000  C
  C158     1.0000 0.58680  0.55380  0.22900  Biso   1.000  C
  H100     1.0000 0.63850  0.60080  0.24250  Biso   1.000  H
  H101     1.0000 0.47390  0.53620  0.04420  Biso   1.000  H
  C159     1.0000 0.53886  0.53600  0.16730  Biso   1.000  C
  H102     1.0000 0.60870  0.54310  0.29000  Biso   1.000  H
  C160     1.0000 0.42570  0.47900  0.23540  Biso   1.000  C
  C161     1.0000 0.49480  0.51912  0.34680  Biso   1.000  C
  H103     1.0000 0.41590  0.46480  0.17710  Biso   1.000  H
  C162     1.0000 0.38670  0.47912  0.29410  Biso   1.000  C
  C163     1.0000 0.45680  0.51795  0.40680  Biso   1.000  C
  H104     1.0000 0.53250  0.53240  0.36620  Biso   1.000  H
  H105     1.0000 0.35020  0.46460  0.27750  Biso   1.000  H
  H106     1.0000 0.46840  0.53080  0.46720  Biso   1.000  H
  C164     1.0000 0.20749  0.40463  0.76870  Biso   1.000  C
  C165     1.0000 0.16760  0.41600  0.68270  Biso   1.000  C
  C166     1.0000 0.26034  0.42431  0.80990  Biso   1.000  C
  C167     1.0000 0.18050  0.44780  0.63810  Biso   1.000  C
  H107     1.0000 0.13240  0.40270  0.65460  Biso   1.000  H
  H108     1.0000 0.28740  0.41630  0.86730  Biso   1.000  H
  C168     1.0000 0.27293  0.45571  0.76630  Biso   1.000  C
  C169     1.0000 0.23272  0.46748  0.67954  Biso   1.000  C
  H109     1.0000 0.15370  0.45560  0.58030  Biso   1.000  H
  H110     1.0000 0.30810  0.46900  0.79460  Biso   1.000  H
  C170     1.0000 0.28250  0.53028  0.49990  Biso   1.000  C
  C171     1.0000 0.32300  0.53101  0.44340  Biso   1.000  C
  H111     1.0000 0.25710  0.55100  0.50100  Biso   1.000  H
  H112     1.0000 0.32510  0.55200  0.40460  Biso   1.000  H
  C172     1.0000 0.84675  0.83029  0.51640  Biso   1.000  C
  C173     1.0000 0.88565  0.80255  0.58770  Biso   1.000  C
  C174     1.0000 0.86940  0.76811  0.60800  Biso   1.000  C
  C175     1.0000 0.94282  0.81663  0.63672  Biso   1.000  C
  H113     1.0000 0.83120  0.75890  0.57540  Biso   1.000  H
  C176     1.0000 0.91000  0.74675  0.67753  Biso   1.000  C
  C177     1.0000 0.98295  0.79530  0.70620  Biso   1.000  C
  H114     1.0000 0.95400  0.84000  0.62310  Biso   1.000  H
  H115     1.0000 0.89890  0.72340  0.69110  Biso   1.000  H
  C178     1.0000 0.96635  0.76036  0.72560  Biso   1.000  C
  H116     1.0000 0.02100  0.80450  0.73970  Biso   1.000  H
  C179     1.0000 0.80044  0.84683  0.56380  Biso   1.000  C
  F19      1.0000 0.79381  0.82274  0.62942  Biso   1.000  F
  F20      1.0000 0.82577  0.87785  0.60604  Biso   1.000  F
  F21      1.0000 0.74669  0.85419  0.50019  Biso   1.000  F
  C180     1.0000 0.88005  0.85912  0.47155  Biso   1.000  C
  F22      1.0000 0.89641  0.88666  0.53293  Biso   1.000  F
  F23      1.0000 0.83970  0.87281  0.39213  Biso   1.000  F
  F24      1.0000 0.92313  0.84188  0.44213  Biso   1.000  F
  Co5      1.0000 0.14310  0.74117  0.96277  Biso   1.000  Co
  N9       1.0000 0.12356  0.79259  0.02734  Biso   1.000  N
  O17      1.0000 0.19458  0.72838  0.09397  Biso   1.000  O
  O18      1.0000 0.29311  0.73067  0.09124  Biso   1.000  O
  C181     1.0000 0.07710  0.81360  0.96670  Biso   1.000  C
  C182     1.0000 0.15550  0.80710  0.11520  Biso   1.000  C
  C183     1.0000 0.24929  0.72401  0.12811  Biso   1.000  C
  H117     1.0000 0.05530  0.80380  0.90480  Biso   1.000  H
  C184     1.0000 0.06270  0.84790  0.99360  Biso   1.000  C
  C185     1.0000 0.14050  0.83970  0.14660  Biso   1.000  C
  H118     1.0000 0.18760  0.79310  0.15780  Biso   1.000  H
  C186     1.0000 0.27571  0.71538  0.23310  Biso   1.000  C
  H119     1.0000 0.03060  0.86180  0.95090  Biso   1.000  H
  C187     1.0000 0.09170  0.86060  0.08700  Biso   1.000  C
  H120     1.0000 0.16230  0.84940  0.20850  Biso   1.000  H
  C188     1.0000 0.23467  0.69949  0.27610  Biso   1.000  C
  C189     1.0000 0.33747  0.71702  0.28271  Biso   1.000  C
  H121     1.0000 0.19340  0.69800  0.24270  Biso   1.000  H
  C190     1.0000 0.25567  0.68572  0.36980  Biso   1.000  C
  C191     1.0000 0.35817  0.70320  0.37630  Biso   1.000  C
  H122     1.0000 0.36500  0.72740  0.25340  Biso   1.000  H
  H123     1.0000 0.22830  0.67510  0.39890  Biso   1.000  H
  C192     1.0000 0.31733  0.68777  0.41980  Biso   1.000  C
  H124     1.0000 0.39950  0.70440  0.40950  Biso   1.000  H
  N10      1.0000 0.66546  0.19374  0.89693  Biso   1.000  N
  C193     1.0000 0.62031  0.17372  0.83390  Biso   1.000  C
  C194     1.0000 0.72588  0.18228  0.91930  Biso   1.000  C
  H125     1.0000 0.58000  0.18170  0.81830  Biso   1.000  H
  C195     1.0000 0.63480  0.14150  0.79320  Biso   1.000  C
  C196     1.0000 0.74042  0.15006  0.87990  Biso   1.000  C
  H126     1.0000 0.75650  0.19610  0.96050  Biso   1.000  H
  C197     1.0000 0.69473  0.12976  0.81601  Biso   1.000  C
  H127     1.0000 0.60420  0.12800  0.75100  Biso   1.000  H
  H128     1.0000 0.78070  0.14200  0.89620  Biso   1.000  H
  O19      1.0000 0.56595  0.74693  0.83781  Biso   1.000  O
  C198     1.0000 0.51156  0.75881  0.80680  Biso   1.000  C
  O20      1.0000 0.48765  0.78156  0.84970  Biso   1.000  O
  C199     1.0000 0.06980  0.89780  0.11000  Biso   1.000  C
  C200     1.0000 0.03070  0.91690  0.04950  Biso   1.000  C
  C201     1.0000 0.10400  0.91160  0.20100  Biso   1.000  C
  C202     1.0000 0.00850  0.95140  0.08560  Biso   1.000  C
  C203     1.0000 0.08680  0.94620  0.22900  Biso   1.000  C
  H129     1.0000 0.13850  0.89920  0.24250  Biso   1.000  H
  H130     1.0000 0.97390  0.96380  0.04420  Biso   1.000  H
  C204     1.0000 0.03886  0.96400  0.16730  Biso   1.000  C
  H131     1.0000 0.10870  0.95690  0.29000  Biso   1.000  H
  C205     1.0000 0.92570  0.02100  0.23540  Biso   1.000  C
  C206     1.0000 0.99480  0.98088  0.34680  Biso   1.000  C
  H132     1.0000 0.91590  0.03520  0.17710  Biso   1.000  H
  C207     1.0000 0.88670  0.02088  0.29410  Biso   1.000  C
  C208     1.0000 0.95680  0.98205  0.40680  Biso   1.000  C
  H133     1.0000 0.03250  0.96760  0.36620  Biso   1.000  H
  H134     1.0000 0.85020  0.03540  0.27750  Biso   1.000  H
  H135     1.0000 0.96840  0.96920  0.46720  Biso   1.000  H
  C209     1.0000 0.70749  0.09537  0.76870  Biso   1.000  C
  C210     1.0000 0.66760  0.08400  0.68270  Biso   1.000  C
  C211     1.0000 0.76034  0.07569  0.80990  Biso   1.000  C
  C212     1.0000 0.68050  0.05220  0.63810  Biso   1.000  C
  H136     1.0000 0.63240  0.09730  0.65460  Biso   1.000  H
  H137     1.0000 0.78740  0.08370  0.86730  Biso   1.000  H
  C213     1.0000 0.77293  0.04429  0.76630  Biso   1.000  C
  C214     1.0000 0.73272  0.03252  0.67954  Biso   1.000  C
  H138     1.0000 0.65370  0.04440  0.58030  Biso   1.000  H
  H139     1.0000 0.80810  0.03100  0.79460  Biso   1.000  H
  C215     1.0000 0.78250  0.96972  0.49990  Biso   1.000  C
  C216     1.0000 0.82300  0.96899  0.44340  Biso   1.000  C
  H140     1.0000 0.75710  0.94900  0.50100  Biso   1.000  H
  H141     1.0000 0.82510  0.94800  0.40460  Biso   1.000  H
  C217     1.0000 0.34675  0.66971  0.51640  Biso   1.000  C
  C218     1.0000 0.38565  0.69745  0.58770  Biso   1.000  C
  C219     1.0000 0.36940  0.73189  0.60800  Biso   1.000  C
  C220     1.0000 0.44282  0.68337  0.63672  Biso   1.000  C
  H142     1.0000 0.33120  0.74110  0.57540  Biso   1.000  H
  C221     1.0000 0.41000  0.75325  0.67753  Biso   1.000  C
  C222     1.0000 0.48295  0.70470  0.70620  Biso   1.000  C
  H143     1.0000 0.45400  0.66000  0.62310  Biso   1.000  H
  H144     1.0000 0.39890  0.77660  0.69110  Biso   1.000  H
  C223     1.0000 0.46635  0.73964  0.72560  Biso   1.000  C
  H145     1.0000 0.52100  0.69550  0.73970  Biso   1.000  H
  C224     1.0000 0.30044  0.65317  0.56380  Biso   1.000  C
  F25      1.0000 0.29381  0.67726  0.62942  Biso   1.000  F
  F26      1.0000 0.32577  0.62215  0.60604  Biso   1.000  F
  F27      1.0000 0.24669  0.64581  0.50019  Biso   1.000  F
  C225     1.0000 0.38005  0.64088  0.47155  Biso   1.000  C
  F28      1.0000 0.39641  0.61334  0.53293  Biso   1.000  F
  F29      1.0000 0.33970  0.62719  0.39213  Biso   1.000  F
  F30      1.0000 0.42313  0.65812  0.44213  Biso   1.000  F
  Co6      1.0000 0.64310  0.24117  0.96277  Biso   1.000  Co
  N11      1.0000 0.62356  0.29259  0.02734  Biso   1.000  N
  O21      1.0000 0.69458  0.22838  0.09397  Biso   1.000  O
  O22      1.0000 0.79311  0.23067  0.09124  Biso   1.000  O
  C226     1.0000 0.57710  0.31360  0.96670  Biso   1.000  C
  C227     1.0000 0.65550  0.30710  0.11520  Biso   1.000  C
  C228     1.0000 0.74929  0.22401  0.12811  Biso   1.000  C
  H146     1.0000 0.55530  0.30380  0.90480  Biso   1.000  H
  C229     1.0000 0.56270  0.34790  0.99360  Biso   1.000  C
  C230     1.0000 0.64050  0.33970  0.14660  Biso   1.000  C
  H147     1.0000 0.68760  0.29310  0.15780  Biso   1.000  H
  C231     1.0000 0.77571  0.21538  0.23310  Biso   1.000  C
  H148     1.0000 0.53060  0.36180  0.95090  Biso   1.000  H
  C232     1.0000 0.59170  0.36060  0.08700  Biso   1.000  C
  H149     1.0000 0.66230  0.34940  0.20850  Biso   1.000  H
  C233     1.0000 0.73467  0.19949  0.27610  Biso   1.000  C
  C234     1.0000 0.83747  0.21702  0.28271  Biso   1.000  C
  H150     1.0000 0.69340  0.19800  0.24270  Biso   1.000  H
  C235     1.0000 0.75567  0.18572  0.36980  Biso   1.000  C
  C236     1.0000 0.85817  0.20320  0.37630  Biso   1.000  C
  H151     1.0000 0.86500  0.22740  0.25340  Biso   1.000  H
  H152     1.0000 0.72830  0.17510  0.39890  Biso   1.000  H
  C237     1.0000 0.81733  0.18777  0.41980  Biso   1.000  C
  H153     1.0000 0.89950  0.20440  0.40950  Biso   1.000  H
  N12      1.0000 0.16546  0.69374  0.89693  Biso   1.000  N
  C238     1.0000 0.12031  0.67372  0.83390  Biso   1.000  C
  C239     1.0000 0.22588  0.68228  0.91930  Biso   1.000  C
  H154     1.0000 0.08000  0.68170  0.81830  Biso   1.000  H
  C240     1.0000 0.13480  0.64150  0.79320  Biso   1.000  C
  C241     1.0000 0.24042  0.65006  0.87990  Biso   1.000  C
  H155     1.0000 0.25650  0.69610  0.96050  Biso   1.000  H
  C242     1.0000 0.19473  0.62976  0.81601  Biso   1.000  C
  H156     1.0000 0.10420  0.62800  0.75100  Biso   1.000  H
  H157     1.0000 0.28070  0.64200  0.89620  Biso   1.000  H
  O23      1.0000 0.06595  0.24693  0.83781  Biso   1.000  O
  C243     1.0000 0.01156  0.25881  0.80680  Biso   1.000  C
  O24      1.0000 0.98765  0.28156  0.84970  Biso   1.000  O
  C244     1.0000 0.56980  0.39780  0.11000  Biso   1.000  C
  C245     1.0000 0.53070  0.41690  0.04950  Biso   1.000  C
  C246     1.0000 0.60400  0.41160  0.20100  Biso   1.000  C
  C247     1.0000 0.50850  0.45140  0.08560  Biso   1.000  C
  C248     1.0000 0.58680  0.44620  0.22900  Biso   1.000  C
  H158     1.0000 0.63850  0.39920  0.24250  Biso   1.000  H
  H159     1.0000 0.47390  0.46380  0.04420  Biso   1.000  H
  C249     1.0000 0.53886  0.46400  0.16730  Biso   1.000  C
  H160     1.0000 0.60870  0.45690  0.29000  Biso   1.000  H
  C250     1.0000 0.42570  0.52100  0.23540  Biso   1.000  C
  C251     1.0000 0.49480  0.48088  0.34680  Biso   1.000  C
  H161     1.0000 0.41590  0.53520  0.17710  Biso   1.000  H
  C252     1.0000 0.38670  0.52088  0.29410  Biso   1.000  C
  C253     1.0000 0.45680  0.48205  0.40680  Biso   1.000  C
  H162     1.0000 0.53250  0.46760  0.36620  Biso   1.000  H
  H163     1.0000 0.35020  0.53540  0.27750  Biso   1.000  H
  H164     1.0000 0.46840  0.46920  0.46720  Biso   1.000  H
  C254     1.0000 0.20749  0.59537  0.76870  Biso   1.000  C
  C255     1.0000 0.16760  0.58400  0.68270  Biso   1.000  C
  C256     1.0000 0.26034  0.57569  0.80990  Biso   1.000  C
  C257     1.0000 0.18050  0.55220  0.63810  Biso   1.000  C
  H165     1.0000 0.13240  0.59730  0.65460  Biso   1.000  H
  H166     1.0000 0.28740  0.58370  0.86730  Biso   1.000  H
  C258     1.0000 0.27293  0.54429  0.76630  Biso   1.000  C
  C259     1.0000 0.23272  0.53252  0.67954  Biso   1.000  C
  H167     1.0000 0.15370  0.54440  0.58030  Biso   1.000  H
  H168     1.0000 0.30810  0.53100  0.79460  Biso   1.000  H
  C260     1.0000 0.28250  0.46972  0.49990  Biso   1.000  C
  C261     1.0000 0.32300  0.46899  0.44340  Biso   1.000  C
  H169     1.0000 0.25710  0.44900  0.50100  Biso   1.000  H
  H170     1.0000 0.32510  0.44800  0.40460  Biso   1.000  H
  C262     1.0000 0.84675  0.16971  0.51640  Biso   1.000  C
  C263     1.0000 0.88565  0.19745  0.58770  Biso   1.000  C
  C264     1.0000 0.86940  0.23189  0.60800  Biso   1.000  C
  C265     1.0000 0.94282  0.18337  0.63672  Biso   1.000  C
  H171     1.0000 0.83120  0.24110  0.57540  Biso   1.000  H
  C266     1.0000 0.91000  0.25325  0.67753  Biso   1.000  C
  C267     1.0000 0.98295  0.20470  0.70620  Biso   1.000  C
  H172     1.0000 0.95400  0.16000  0.62310  Biso   1.000  H
  H173     1.0000 0.89890  0.27660  0.69110  Biso   1.000  H
  C268     1.0000 0.96635  0.23964  0.72560  Biso   1.000  C
  H174     1.0000 0.02100  0.19550  0.73970  Biso   1.000  H
  C269     1.0000 0.80044  0.15317  0.56380  Biso   1.000  C
  F31      1.0000 0.79381  0.17726  0.62942  Biso   1.000  F
  F32      1.0000 0.82577  0.12215  0.60604  Biso   1.000  F
  F33      1.0000 0.74669  0.14581  0.50019  Biso   1.000  F
  C270     1.0000 0.88005  0.14088  0.47155  Biso   1.000  C
  F34      1.0000 0.89641  0.11334  0.53293  Biso   1.000  F
  F35      1.0000 0.83970  0.12719  0.39213  Biso   1.000  F
  F36      1.0000 0.92313  0.15812  0.44213  Biso   1.000  F
  Co7      1.0000 0.85690  0.74117  0.03723  Biso   1.000  Co
  N13      1.0000 0.87644  0.79259  0.97266  Biso   1.000  N
  O25      1.0000 0.80542  0.72838  0.90603  Biso   1.000  O
  O26      1.0000 0.70689  0.73067  0.90876  Biso   1.000  O
  C271     1.0000 0.92290  0.81360  0.03330  Biso   1.000  C
  C272     1.0000 0.84450  0.80710  0.88480  Biso   1.000  C
  C273     1.0000 0.75071  0.72401  0.87189  Biso   1.000  C
  H175     1.0000 0.94470  0.80380  0.09520  Biso   1.000  H
  C274     1.0000 0.93730  0.84790  0.00640  Biso   1.000  C
  C275     1.0000 0.85950  0.83970  0.85340  Biso   1.000  C
  H176     1.0000 0.81240  0.79310  0.84220  Biso   1.000  H
  C276     1.0000 0.72429  0.71538  0.76690  Biso   1.000  C
  H177     1.0000 0.96940  0.86180  0.04910  Biso   1.000  H
  C277     1.0000 0.90830  0.86060  0.91300  Biso   1.000  C
  H178     1.0000 0.83770  0.84940  0.79150  Biso   1.000  H
  C278     1.0000 0.76533  0.69949  0.72390  Biso   1.000  C
  C279     1.0000 0.66253  0.71702  0.71729  Biso   1.000  C
  H179     1.0000 0.80660  0.69800  0.75730  Biso   1.000  H
  C280     1.0000 0.74433  0.68572  0.63020  Biso   1.000  C
  C281     1.0000 0.64183  0.70320  0.62370  Biso   1.000  C
  H180     1.0000 0.63500  0.72740  0.74660  Biso   1.000  H
  H181     1.0000 0.77170  0.67510  0.60110  Biso   1.000  H
  C282     1.0000 0.68267  0.68777  0.58020  Biso   1.000  C
  H182     1.0000 0.60050  0.70440  0.59050  Biso   1.000  H
  N14      1.0000 0.33454  0.19374  0.10307  Biso   1.000  N
  C283     1.0000 0.37969  0.17372  0.16610  Biso   1.000  C
  C284     1.0000 0.27412  0.18228  0.08070  Biso   1.000  C
  H183     1.0000 0.42000  0.18170  0.18170  Biso   1.000  H
  C285     1.0000 0.36520  0.14150  0.20680  Biso   1.000  C
  C286     1.0000 0.25958  0.15006  0.12010  Biso   1.000  C
  H184     1.0000 0.24350  0.19610  0.03950  Biso   1.000  H
  C287     1.0000 0.30527  0.12976  0.18399  Biso   1.000  C
  H185     1.0000 0.39580  0.12800  0.24900  Biso   1.000  H
  H186     1.0000 0.21930  0.14200  0.10380  Biso   1.000  H
  O27      1.0000 0.43405  0.74693  0.16219  Biso   1.000  O
  C288     1.0000 0.48844  0.75881  0.19320  Biso   1.000  C
  O28      1.0000 0.51235  0.78156  0.15030  Biso   1.000  O
  C289     1.0000 0.93020  0.89780  0.89000  Biso   1.000  C
  C290     1.0000 0.96930  0.91690  0.95050  Biso   1.000  C
  C291     1.0000 0.89600  0.91160  0.79900  Biso   1.000  C
  C292     1.0000 0.99150  0.95140  0.91440  Biso   1.000  C
  C293     1.0000 0.91320  0.94620  0.77100  Biso   1.000  C
  H187     1.0000 0.86150  0.89920  0.75750  Biso   1.000  H
  H188     1.0000 0.02610  0.96380  0.95580  Biso   1.000  H
  C294     1.0000 0.96114  0.96400  0.83270  Biso   1.000  C
  H189     1.0000 0.89130  0.95690  0.71000  Biso   1.000  H
  C295     1.0000 0.07430  0.02100  0.76460  Biso   1.000  C
  C296     1.0000 0.00520  0.98088  0.65320  Biso   1.000  C
  H190     1.0000 0.08410  0.03520  0.82290  Biso   1.000  H
  C297     1.0000 0.11330  0.02088  0.70590  Biso   1.000  C
  C298     1.0000 0.04320  0.98205  0.59320  Biso   1.000  C
  H191     1.0000 0.96750  0.96760  0.63380  Biso   1.000  H
  H192     1.0000 0.14980  0.03540  0.72250  Biso   1.000  H
  H193     1.0000 0.03160  0.96920  0.53280  Biso   1.000  H
  C299     1.0000 0.29251  0.09537  0.23130  Biso   1.000  C
  C300     1.0000 0.33240  0.08400  0.31730  Biso   1.000  C
  C301     1.0000 0.23966  0.07569  0.19010  Biso   1.000  C
  C302     1.0000 0.31950  0.05220  0.36190  Biso   1.000  C
  H194     1.0000 0.36760  0.09730  0.34540  Biso   1.000  H
  H195     1.0000 0.21260  0.08370  0.13270  Biso   1.000  H
  C303     1.0000 0.22707  0.04429  0.23370  Biso   1.000  C
  C304     1.0000 0.26728  0.03252  0.32046  Biso   1.000  C
  H196     1.0000 0.34630  0.04440  0.41970  Biso   1.000  H
  H197     1.0000 0.19190  0.03100  0.20540  Biso   1.000  H
  C305     1.0000 0.21750  0.96972  0.50010  Biso   1.000  C
  C306     1.0000 0.17700  0.96899  0.55660  Biso   1.000  C
  H198     1.0000 0.24290  0.94900  0.49900  Biso   1.000  H
  H199     1.0000 0.17490  0.94800  0.59540  Biso   1.000  H
  C307     1.0000 0.65325  0.66971  0.48360  Biso   1.000  C
  C308     1.0000 0.61435  0.69745  0.41230  Biso   1.000  C
  C309     1.0000 0.63060  0.73189  0.39200  Biso   1.000  C
  C310     1.0000 0.55718  0.68337  0.36328  Biso   1.000  C
  H200     1.0000 0.66880  0.74110  0.42460  Biso   1.000  H
  C311     1.0000 0.59000  0.75325  0.32247  Biso   1.000  C
  C312     1.0000 0.51705  0.70470  0.29380  Biso   1.000  C
  H201     1.0000 0.54600  0.66000  0.37690  Biso   1.000  H
  H202     1.0000 0.60110  0.77660  0.30890  Biso   1.000  H
  C313     1.0000 0.53365  0.73964  0.27440  Biso   1.000  C
  H203     1.0000 0.47900  0.69550  0.26030  Biso   1.000  H
  C314     1.0000 0.69956  0.65317  0.43620  Biso   1.000  C
  F37      1.0000 0.70619  0.67726  0.37058  Biso   1.000  F
  F38      1.0000 0.67423  0.62215  0.39396  Biso   1.000  F
  F39      1.0000 0.75331  0.64581  0.49981  Biso   1.000  F
  C315     1.0000 0.61995  0.64088  0.52845  Biso   1.000  C
  F40      1.0000 0.60359  0.61334  0.46707  Biso   1.000  F
  F41      1.0000 0.66030  0.62719  0.60787  Biso   1.000  F
  F42      1.0000 0.57687  0.65812  0.55787  Biso   1.000  F
  Co8      1.0000 0.35690  0.24117  0.03723  Biso   1.000  Co
  N15      1.0000 0.37644  0.29259  0.97266  Biso   1.000  N
  O29      1.0000 0.30542  0.22838  0.90603  Biso   1.000  O
  O30      1.0000 0.20689  0.23067  0.90876  Biso   1.000  O
  C316     1.0000 0.42290  0.31360  0.03330  Biso   1.000  C
  C317     1.0000 0.34450  0.30710  0.88480  Biso   1.000  C
  C318     1.0000 0.25071  0.22401  0.87189  Biso   1.000  C
  H204     1.0000 0.44470  0.30380  0.09520  Biso   1.000  H
  C319     1.0000 0.43730  0.34790  0.00640  Biso   1.000  C
  C320     1.0000 0.35950  0.33970  0.85340  Biso   1.000  C
  H205     1.0000 0.31240  0.29310  0.84220  Biso   1.000  H
  C321     1.0000 0.22429  0.21538  0.76690  Biso   1.000  C
  H206     1.0000 0.46940  0.36180  0.04910  Biso   1.000  H
  C322     1.0000 0.40830  0.36060  0.91300  Biso   1.000  C
  H207     1.0000 0.33770  0.34940  0.79150  Biso   1.000  H
  C323     1.0000 0.26533  0.19949  0.72390  Biso   1.000  C
  C324     1.0000 0.16253  0.21702  0.71729  Biso   1.000  C
  H208     1.0000 0.30660  0.19800  0.75730  Biso   1.000  H
  C325     1.0000 0.24433  0.18572  0.63020  Biso   1.000  C
  C326     1.0000 0.14183  0.20320  0.62370  Biso   1.000  C
  H209     1.0000 0.13500  0.22740  0.74660  Biso   1.000  H
  H210     1.0000 0.27170  0.17510  0.60110  Biso   1.000  H
  C327     1.0000 0.18267  0.18777  0.58020  Biso   1.000  C
  H211     1.0000 0.10050  0.20440  0.59050  Biso   1.000  H
  N16      1.0000 0.83454  0.69374  0.10307  Biso   1.000  N
  C328     1.0000 0.87969  0.67372  0.16610  Biso   1.000  C
  C329     1.0000 0.77412  0.68228  0.08070  Biso   1.000  C
  H212     1.0000 0.92000  0.68170  0.18170  Biso   1.000  H
  C330     1.0000 0.86520  0.64150  0.20680  Biso   1.000  C
  C331     1.0000 0.75958  0.65006  0.12010  Biso   1.000  C
  H213     1.0000 0.74350  0.69610  0.03950  Biso   1.000  H
  C332     1.0000 0.80527  0.62976  0.18399  Biso   1.000  C
  H214     1.0000 0.89580  0.62800  0.24900  Biso   1.000  H
  H215     1.0000 0.71930  0.64200  0.10380  Biso   1.000  H
  O31      1.0000 0.93405  0.24693  0.16219  Biso   1.000  O
  C333     1.0000 0.98844  0.25881  0.19320  Biso   1.000  C
  O32      1.0000 0.01235  0.28156  0.15030  Biso   1.000  O
  C334     1.0000 0.43020  0.39780  0.89000  Biso   1.000  C
  C335     1.0000 0.46930  0.41690  0.95050  Biso   1.000  C
  C336     1.0000 0.39600  0.41160  0.79900  Biso   1.000  C
  C337     1.0000 0.49150  0.45140  0.91440  Biso   1.000  C
  C338     1.0000 0.41320  0.44620  0.77100  Biso   1.000  C
  H216     1.0000 0.36150  0.39920  0.75750  Biso   1.000  H
  H217     1.0000 0.52610  0.46380  0.95580  Biso   1.000  H
  C339     1.0000 0.46114  0.46400  0.83270  Biso   1.000  C
  H218     1.0000 0.39130  0.45690  0.71000  Biso   1.000  H
  C340     1.0000 0.57430  0.52100  0.76460  Biso   1.000  C
  C341     1.0000 0.50520  0.48088  0.65320  Biso   1.000  C
  H219     1.0000 0.58410  0.53520  0.82290  Biso   1.000  H
  C342     1.0000 0.61330  0.52088  0.70590  Biso   1.000  C
  C343     1.0000 0.54320  0.48205  0.59320  Biso   1.000  C
  H220     1.0000 0.46750  0.46760  0.63380  Biso   1.000  H
  H221     1.0000 0.64980  0.53540  0.72250  Biso   1.000  H
  H222     1.0000 0.53160  0.46920  0.53280  Biso   1.000  H
  C344     1.0000 0.79251  0.59537  0.23130  Biso   1.000  C
  C345     1.0000 0.83240  0.58400  0.31730  Biso   1.000  C
  C346     1.0000 0.73966  0.57569  0.19010  Biso   1.000  C
  C347     1.0000 0.81950  0.55220  0.36190  Biso   1.000  C
  H223     1.0000 0.86760  0.59730  0.34540  Biso   1.000  H
  H224     1.0000 0.71260  0.58370  0.13270  Biso   1.000  H
  C348     1.0000 0.72707  0.54429  0.23370  Biso   1.000  C
  C349     1.0000 0.76728  0.53252  0.32046  Biso   1.000  C
  H225     1.0000 0.84630  0.54440  0.41970  Biso   1.000  H
  H226     1.0000 0.69190  0.53100  0.20540  Biso   1.000  H
  C350     1.0000 0.71750  0.46972  0.50010  Biso   1.000  C
  C351     1.0000 0.67700  0.46899  0.55660  Biso   1.000  C
  H227     1.0000 0.74290  0.44900  0.49900  Biso   1.000  H
  H228     1.0000 0.67490  0.44800  0.59540  Biso   1.000  H
  C352     1.0000 0.15325  0.16971  0.48360  Biso   1.000  C
  C353     1.0000 0.11435  0.19745  0.41230  Biso   1.000  C
  C354     1.0000 0.13060  0.23189  0.39200  Biso   1.000  C
  C355     1.0000 0.05718  0.18337  0.36328  Biso   1.000  C
  H229     1.0000 0.16880  0.24110  0.42460  Biso   1.000  H
  C356     1.0000 0.09000  0.25325  0.32247  Biso   1.000  C
  C357     1.0000 0.01705  0.20470  0.29380  Biso   1.000  C
  H230     1.0000 0.04600  0.16000  0.37690  Biso   1.000  H
  H231     1.0000 0.10110  0.27660  0.30890  Biso   1.000  H
  C358     1.0000 0.03365  0.23964  0.27440  Biso   1.000  C
  H232     1.0000 0.97900  0.19550  0.26030  Biso   1.000  H
  C359     1.0000 0.19956  0.15317  0.43620  Biso   1.000  C
  F43      1.0000 0.20619  0.17726  0.37058  Biso   1.000  F
  F44      1.0000 0.17423  0.12215  0.39396  Biso   1.000  F
  F45      1.0000 0.25331  0.14581  0.49981  Biso   1.000  F
  C360     1.0000 0.11995  0.14088  0.52845  Biso   1.000  C
  F46      1.0000 0.10359  0.11334  0.46707  Biso   1.000  F
  F47      1.0000 0.16030  0.12719  0.60787  Biso   1.000  F
  F48      1.0000 0.07687  0.15812  0.55787  Biso   1.000  F
  N17      1.0000 0.98145  0.00000  0.80380  Biso   1.000  N
  C361     1.0000 0.01988  0.00000  0.73870  Biso   1.000  C
  C362     1.0000 0.09738  0.00000  0.62030  Biso   1.000  C
  N18      1.0000 0.25710  0.00000  0.37360  Biso   1.000  N
  C363     1.0000 0.21919  0.00000  0.44190  Biso   1.000  C
  C364     1.0000 0.14121  0.00000  0.55900  Biso   1.000  C
  N19      1.0000 0.48145  0.50000  0.80380  Biso   1.000  N
  C365     1.0000 0.51988  0.50000  0.73870  Biso   1.000  C
  C366     1.0000 0.59738  0.50000  0.62030  Biso   1.000  C
  N20      1.0000 0.75710  0.50000  0.37360  Biso   1.000  N
  C367     1.0000 0.71919  0.50000  0.44190  Biso   1.000  C
  C368     1.0000 0.64121  0.50000  0.55900  Biso   1.000  C
  N21      1.0000 0.01855  0.00000  0.19620  Biso   1.000  N
  C369     1.0000 0.98012  0.00000  0.26130  Biso   1.000  C
  C370     1.0000 0.90262  0.00000  0.37970  Biso   1.000  C
  N22      1.0000 0.74290  0.00000  0.62640  Biso   1.000  N
  C371     1.0000 0.78081  0.00000  0.55810  Biso   1.000  C
  C372     1.0000 0.85879  0.00000  0.44100  Biso   1.000  C
  N23      1.0000 0.51855  0.50000  0.19620  Biso   1.000  N
  C373     1.0000 0.48012  0.50000  0.26130  Biso   1.000  C
  C374     1.0000 0.40262  0.50000  0.37970  Biso   1.000  C
  N24      1.0000 0.24290  0.50000  0.62640  Biso   1.000  N
  C375     1.0000 0.28081  0.50000  0.55810  Biso   1.000  C
  C376     1.0000 0.35879  0.50000  0.44100  Biso   1.000  C
