data_image0
_cell_length_a       33.175
_cell_length_b       33.175
_cell_length_c       33.175
_cell_angle_alpha    90
_cell_angle_beta     90
_cell_angle_gamma    90

_symmetry_space_group_name_H-M    "P 1"
_symmetry_int_tables_number       1

loop_
  _symmetry_equiv_pos_as_xyz
  'x, y, z'

loop_
  _atom_site_label
  _atom_site_occupancy
  _atom_site_fract_x
  _atom_site_fract_y
  _atom_site_fract_z
  _atom_site_thermal_displace_type
  _atom_site_B_iso_or_equiv
  _atom_site_type_symbol
  C1       1.0000 0.21666  0.18715  0.24634  Biso   1.000  C
  C2       1.0000 0.18732  0.21697  0.24666  Biso   1.000  C
  H1       1.0000 0.16880  0.21690  0.26870  Biso   1.000  H
  C3       1.0000 0.25060  0.04330  0.43890  Biso   1.000  C
  C4       1.0000 0.25050  0.06950  0.40000  Biso   1.000  C
  C5       1.0000 0.28780  0.08140  0.38270  Biso   1.000  C
  H2       1.0000 0.31270  0.07230  0.39420  Biso   1.000  H
  C6       1.0000 0.28830  0.10660  0.35020  Biso   1.000  C
  H3       1.0000 0.31300  0.11570  0.33980  Biso   1.000  H
  C7       1.0000 0.25200  0.11950  0.33180  Biso   1.000  C
  C8       1.0000 0.25050  0.14500  0.29840  Biso   1.000  C
  H4       1.0000 0.27520  0.15290  0.28680  Biso   1.000  H
  C9       1.0000 0.21610  0.15820  0.28140  Biso   1.000  C
  C10      1.0000 0.17830  0.14400  0.29860  Biso   1.000  C
  H5       1.0000 0.15330  0.15190  0.28650  Biso   1.000  H
  C11      1.0000 0.17790  0.11920  0.32960  Biso   1.000  C
  H6       1.0000 0.15290  0.11080  0.34020  Biso   1.000  H
  C12      1.0000 0.21390  0.10570  0.34810  Biso   1.000  C
  C13      1.0000 0.21490  0.08030  0.38240  Biso   1.000  C
  H7       1.0000 0.18990  0.07130  0.39390  Biso   1.000  H
  O1       1.0000 0.21660  0.03340  0.45160  Biso   1.000  O
  O2       1.0000 0.28480  0.03400  0.45210  Biso   1.000  O
  C14      1.0000 0.24910  0.06130  0.45600  Biso   1.000  C
  C15      1.0000 0.24950  0.10010  0.43040  Biso   1.000  C
  C16      1.0000 0.21270  0.11750  0.41750  Biso   1.000  C
  H8       1.0000 0.18770  0.10650  0.42700  Biso   1.000  H
  C17      1.0000 0.21220  0.14920  0.39340  Biso   1.000  C
  H9       1.0000 0.18750  0.15910  0.38380  Biso   1.000  H
  C18      1.0000 0.24830  0.16830  0.38070  Biso   1.000  C
  C19      1.0000 0.24930  0.20180  0.35460  Biso   1.000  C
  H10      1.0000 0.22460  0.21260  0.34600  Biso   1.000  H
  C20      1.0000 0.28340  0.21790  0.34200  Biso   1.000  C
  C21      1.0000 0.32170  0.20120  0.35660  Biso   1.000  C
  H11      1.0000 0.34700  0.21310  0.34900  Biso   1.000  H
  C22      1.0000 0.32140  0.17030  0.38130  Biso   1.000  C
  H12      1.0000 0.34620  0.15990  0.39010  Biso   1.000  H
  C23      1.0000 0.28640  0.15160  0.39440  Biso   1.000  C
  C24      1.0000 0.28490  0.11760  0.41920  Biso   1.000  C
  H13      1.0000 0.30990  0.10610  0.42810  Biso   1.000  H
  O3       1.0000 0.21560  0.04780  0.46560  Biso   1.000  O
  O4       1.0000 0.28320  0.04830  0.46600  Biso   1.000  O
  C25      1.0000 0.71666  0.68715  0.74634  Biso   1.000  C
  C26      1.0000 0.68732  0.71697  0.74666  Biso   1.000  C
  H14      1.0000 0.66880  0.71690  0.76870  Biso   1.000  H
  C27      1.0000 0.75060  0.54330  0.93890  Biso   1.000  C
  C28      1.0000 0.75050  0.56950  0.90000  Biso   1.000  C
  C29      1.0000 0.78780  0.58140  0.88270  Biso   1.000  C
  H15      1.0000 0.81270  0.57230  0.89420  Biso   1.000  H
  C30      1.0000 0.78830  0.60660  0.85020  Biso   1.000  C
  H16      1.0000 0.81300  0.61570  0.83980  Biso   1.000  H
  C31      1.0000 0.75200  0.61950  0.83180  Biso   1.000  C
  C32      1.0000 0.75050  0.64500  0.79840  Biso   1.000  C
  H17      1.0000 0.77520  0.65290  0.78680  Biso   1.000  H
  C33      1.0000 0.71610  0.65820  0.78140  Biso   1.000  C
  C34      1.0000 0.67830  0.64400  0.79860  Biso   1.000  C
  H18      1.0000 0.65330  0.65190  0.78650  Biso   1.000  H
  C35      1.0000 0.67790  0.61920  0.82960  Biso   1.000  C
  H19      1.0000 0.65290  0.61080  0.84020  Biso   1.000  H
  C36      1.0000 0.71390  0.60570  0.84810  Biso   1.000  C
  C37      1.0000 0.71490  0.58030  0.88240  Biso   1.000  C
  H20      1.0000 0.68990  0.57130  0.89390  Biso   1.000  H
  O5       1.0000 0.71660  0.53340  0.95160  Biso   1.000  O
  O6       1.0000 0.78480  0.53400  0.95210  Biso   1.000  O
  C38      1.0000 0.74910  0.56130  0.95600  Biso   1.000  C
  C39      1.0000 0.74950  0.60010  0.93040  Biso   1.000  C
  C40      1.0000 0.71270  0.61750  0.91750  Biso   1.000  C
  H21      1.0000 0.68770  0.60650  0.92700  Biso   1.000  H
  C41      1.0000 0.71220  0.64920  0.89340  Biso   1.000  C
  H22      1.0000 0.68750  0.65910  0.88380  Biso   1.000  H
  C42      1.0000 0.74830  0.66830  0.88070  Biso   1.000  C
  C43      1.0000 0.74930  0.70180  0.85460  Biso   1.000  C
  H23      1.0000 0.72460  0.71260  0.84600  Biso   1.000  H
  C44      1.0000 0.78340  0.71790  0.84200  Biso   1.000  C
  C45      1.0000 0.82170  0.70120  0.85660  Biso   1.000  C
  H24      1.0000 0.84700  0.71310  0.84900  Biso   1.000  H
  C46      1.0000 0.82140  0.67030  0.88130  Biso   1.000  C
  H25      1.0000 0.84620  0.65990  0.89010  Biso   1.000  H
  C47      1.0000 0.78640  0.65160  0.89440  Biso   1.000  C
  C48      1.0000 0.78490  0.61760  0.91920  Biso   1.000  C
  H26      1.0000 0.80990  0.60610  0.92810  Biso   1.000  H
  O7       1.0000 0.71560  0.54780  0.96560  Biso   1.000  O
  O8       1.0000 0.78320  0.54830  0.96600  Biso   1.000  O
  C49      1.0000 0.78334  0.81285  0.24634  Biso   1.000  C
  C50      1.0000 0.81268  0.78303  0.24666  Biso   1.000  C
  H27      1.0000 0.83120  0.78310  0.26870  Biso   1.000  H
  C51      1.0000 0.74940  0.95670  0.43890  Biso   1.000  C
  C52      1.0000 0.74950  0.93050  0.40000  Biso   1.000  C
  C53      1.0000 0.71220  0.91860  0.38270  Biso   1.000  C
  H28      1.0000 0.68730  0.92770  0.39420  Biso   1.000  H
  C54      1.0000 0.71170  0.89340  0.35020  Biso   1.000  C
  H29      1.0000 0.68700  0.88430  0.33980  Biso   1.000  H
  C55      1.0000 0.74800  0.88050  0.33180  Biso   1.000  C
  C56      1.0000 0.74950  0.85500  0.29840  Biso   1.000  C
  H30      1.0000 0.72480  0.84710  0.28680  Biso   1.000  H
  C57      1.0000 0.78390  0.84180  0.28140  Biso   1.000  C
  C58      1.0000 0.82170  0.85600  0.29860  Biso   1.000  C
  H31      1.0000 0.84670  0.84810  0.28650  Biso   1.000  H
  C59      1.0000 0.82210  0.88080  0.32960  Biso   1.000  C
  H32      1.0000 0.84710  0.88920  0.34020  Biso   1.000  H
  C60      1.0000 0.78610  0.89430  0.34810  Biso   1.000  C
  C61      1.0000 0.78510  0.91970  0.38240  Biso   1.000  C
  H33      1.0000 0.81010  0.92870  0.39390  Biso   1.000  H
  O9       1.0000 0.78340  0.96660  0.45160  Biso   1.000  O
  O10      1.0000 0.71520  0.96600  0.45210  Biso   1.000  O
  C62      1.0000 0.75090  0.93870  0.45600  Biso   1.000  C
  C63      1.0000 0.75050  0.89990  0.43040  Biso   1.000  C
  C64      1.0000 0.78730  0.88250  0.41750  Biso   1.000  C
  H34      1.0000 0.81230  0.89350  0.42700  Biso   1.000  H
  C65      1.0000 0.78780  0.85080  0.39340  Biso   1.000  C
  H35      1.0000 0.81250  0.84090  0.38380  Biso   1.000  H
  C66      1.0000 0.75170  0.83170  0.38070  Biso   1.000  C
  C67      1.0000 0.75070  0.79820  0.35460  Biso   1.000  C
  H36      1.0000 0.77540  0.78740  0.34600  Biso   1.000  H
  C68      1.0000 0.71660  0.78210  0.34200  Biso   1.000  C
  C69      1.0000 0.67830  0.79880  0.35660  Biso   1.000  C
  H37      1.0000 0.65300  0.78690  0.34900  Biso   1.000  H
  C70      1.0000 0.67860  0.82970  0.38130  Biso   1.000  C
  H38      1.0000 0.65380  0.84010  0.39010  Biso   1.000  H
  C71      1.0000 0.71360  0.84840  0.39440  Biso   1.000  C
  C72      1.0000 0.71510  0.88240  0.41920  Biso   1.000  C
  H39      1.0000 0.69010  0.89390  0.42810  Biso   1.000  H
  O11      1.0000 0.78440  0.95220  0.46560  Biso   1.000  O
  O12      1.0000 0.71680  0.95170  0.46600  Biso   1.000  O
  C73      1.0000 0.28334  0.31285  0.74634  Biso   1.000  C
  C74      1.0000 0.31268  0.28303  0.74666  Biso   1.000  C
  H40      1.0000 0.33120  0.28310  0.76870  Biso   1.000  H
  C75      1.0000 0.24940  0.45670  0.93890  Biso   1.000  C
  C76      1.0000 0.24950  0.43050  0.90000  Biso   1.000  C
  C77      1.0000 0.21220  0.41860  0.88270  Biso   1.000  C
  H41      1.0000 0.18730  0.42770  0.89420  Biso   1.000  H
  C78      1.0000 0.21170  0.39340  0.85020  Biso   1.000  C
  H42      1.0000 0.18700  0.38430  0.83980  Biso   1.000  H
  C79      1.0000 0.24800  0.38050  0.83180  Biso   1.000  C
  C80      1.0000 0.24950  0.35500  0.79840  Biso   1.000  C
  H43      1.0000 0.22480  0.34710  0.78680  Biso   1.000  H
  C81      1.0000 0.28390  0.34180  0.78140  Biso   1.000  C
  C82      1.0000 0.32170  0.35600  0.79860  Biso   1.000  C
  H44      1.0000 0.34670  0.34810  0.78650  Biso   1.000  H
  C83      1.0000 0.32210  0.38080  0.82960  Biso   1.000  C
  H45      1.0000 0.34710  0.38920  0.84020  Biso   1.000  H
  C84      1.0000 0.28610  0.39430  0.84810  Biso   1.000  C
  C85      1.0000 0.28510  0.41970  0.88240  Biso   1.000  C
  H46      1.0000 0.31010  0.42870  0.89390  Biso   1.000  H
  O13      1.0000 0.28340  0.46660  0.95160  Biso   1.000  O
  O14      1.0000 0.21520  0.46600  0.95210  Biso   1.000  O
  C86      1.0000 0.25090  0.43870  0.95600  Biso   1.000  C
  C87      1.0000 0.25050  0.39990  0.93040  Biso   1.000  C
  C88      1.0000 0.28730  0.38250  0.91750  Biso   1.000  C
  H47      1.0000 0.31230  0.39350  0.92700  Biso   1.000  H
  C89      1.0000 0.28780  0.35080  0.89340  Biso   1.000  C
  H48      1.0000 0.31250  0.34090  0.88380  Biso   1.000  H
  C90      1.0000 0.25170  0.33170  0.88070  Biso   1.000  C
  C91      1.0000 0.25070  0.29820  0.85460  Biso   1.000  C
  H49      1.0000 0.27540  0.28740  0.84600  Biso   1.000  H
  C92      1.0000 0.21660  0.28210  0.84200  Biso   1.000  C
  C93      1.0000 0.17830  0.29880  0.85660  Biso   1.000  C
  H50      1.0000 0.15300  0.28690  0.84900  Biso   1.000  H
  C94      1.0000 0.17860  0.32970  0.88130  Biso   1.000  C
  H51      1.0000 0.15380  0.34010  0.89010  Biso   1.000  H
  C95      1.0000 0.21360  0.34840  0.89440  Biso   1.000  C
  C96      1.0000 0.21510  0.38240  0.91920  Biso   1.000  C
  H52      1.0000 0.19010  0.39390  0.92810  Biso   1.000  H
  O15      1.0000 0.28440  0.45220  0.96560  Biso   1.000  O
  O16      1.0000 0.21680  0.45170  0.96600  Biso   1.000  O
  C97      1.0000 0.78334  0.18715  0.75366  Biso   1.000  C
  C98      1.0000 0.81268  0.21697  0.75334  Biso   1.000  C
  H53      1.0000 0.83120  0.21690  0.73130  Biso   1.000  H
  C99      1.0000 0.74940  0.04330  0.56110  Biso   1.000  C
  C100     1.0000 0.74950  0.06950  0.60000  Biso   1.000  C
  C101     1.0000 0.71220  0.08140  0.61730  Biso   1.000  C
  H54      1.0000 0.68730  0.07230  0.60580  Biso   1.000  H
  C102     1.0000 0.71170  0.10660  0.64980  Biso   1.000  C
  H55      1.0000 0.68700  0.11570  0.66020  Biso   1.000  H
  C103     1.0000 0.74800  0.11950  0.66820  Biso   1.000  C
  C104     1.0000 0.74950  0.14500  0.70160  Biso   1.000  C
  H56      1.0000 0.72480  0.15290  0.71320  Biso   1.000  H
  C105     1.0000 0.78390  0.15820  0.71860  Biso   1.000  C
  C106     1.0000 0.82170  0.14400  0.70140  Biso   1.000  C
  H57      1.0000 0.84670  0.15190  0.71350  Biso   1.000  H
  C107     1.0000 0.82210  0.11920  0.67040  Biso   1.000  C
  H58      1.0000 0.84710  0.11080  0.65980  Biso   1.000  H
  C108     1.0000 0.78610  0.10570  0.65190  Biso   1.000  C
  C109     1.0000 0.78510  0.08030  0.61760  Biso   1.000  C
  H59      1.0000 0.81010  0.07130  0.60610  Biso   1.000  H
  O17      1.0000 0.78340  0.03340  0.54840  Biso   1.000  O
  O18      1.0000 0.71520  0.03400  0.54790  Biso   1.000  O
  C110     1.0000 0.75090  0.06130  0.54400  Biso   1.000  C
  C111     1.0000 0.75050  0.10010  0.56960  Biso   1.000  C
  C112     1.0000 0.78730  0.11750  0.58250  Biso   1.000  C
  H60      1.0000 0.81230  0.10650  0.57300  Biso   1.000  H
  C113     1.0000 0.78780  0.14920  0.60660  Biso   1.000  C
  H61      1.0000 0.81250  0.15910  0.61620  Biso   1.000  H
  C114     1.0000 0.75170  0.16830  0.61930  Biso   1.000  C
  C115     1.0000 0.75070  0.20180  0.64540  Biso   1.000  C
  H62      1.0000 0.77540  0.21260  0.65400  Biso   1.000  H
  C116     1.0000 0.71660  0.21790  0.65800  Biso   1.000  C
  C117     1.0000 0.67830  0.20120  0.64340  Biso   1.000  C
  H63      1.0000 0.65300  0.21310  0.65100  Biso   1.000  H
  C118     1.0000 0.67860  0.17030  0.61870  Biso   1.000  C
  H64      1.0000 0.65380  0.15990  0.60990  Biso   1.000  H
  C119     1.0000 0.71360  0.15160  0.60560  Biso   1.000  C
  C120     1.0000 0.71510  0.11760  0.58080  Biso   1.000  C
  H65      1.0000 0.69010  0.10610  0.57190  Biso   1.000  H
  O19      1.0000 0.78440  0.04780  0.53440  Biso   1.000  O
  O20      1.0000 0.71680  0.04830  0.53400  Biso   1.000  O
  C121     1.0000 0.28334  0.68715  0.25366  Biso   1.000  C
  C122     1.0000 0.31268  0.71697  0.25334  Biso   1.000  C
  H66      1.0000 0.33120  0.71690  0.23130  Biso   1.000  H
  C123     1.0000 0.24940  0.54330  0.06110  Biso   1.000  C
  C124     1.0000 0.24950  0.56950  0.10000  Biso   1.000  C
  C125     1.0000 0.21220  0.58140  0.11730  Biso   1.000  C
  H67      1.0000 0.18730  0.57230  0.10580  Biso   1.000  H
  C126     1.0000 0.21170  0.60660  0.14980  Biso   1.000  C
  H68      1.0000 0.18700  0.61570  0.16020  Biso   1.000  H
  C127     1.0000 0.24800  0.61950  0.16820  Biso   1.000  C
  C128     1.0000 0.24950  0.64500  0.20160  Biso   1.000  C
  H69      1.0000 0.22480  0.65290  0.21320  Biso   1.000  H
  C129     1.0000 0.28390  0.65820  0.21860  Biso   1.000  C
  C130     1.0000 0.32170  0.64400  0.20140  Biso   1.000  C
  H70      1.0000 0.34670  0.65190  0.21350  Biso   1.000  H
  C131     1.0000 0.32210  0.61920  0.17040  Biso   1.000  C
  H71      1.0000 0.34710  0.61080  0.15980  Biso   1.000  H
  C132     1.0000 0.28610  0.60570  0.15190  Biso   1.000  C
  C133     1.0000 0.28510  0.58030  0.11760  Biso   1.000  C
  H72      1.0000 0.31010  0.57130  0.10610  Biso   1.000  H
  O21      1.0000 0.28340  0.53340  0.04840  Biso   1.000  O
  O22      1.0000 0.21520  0.53400  0.04790  Biso   1.000  O
  C134     1.0000 0.25090  0.56130  0.04400  Biso   1.000  C
  C135     1.0000 0.25050  0.60010  0.06960  Biso   1.000  C
  C136     1.0000 0.28730  0.61750  0.08250  Biso   1.000  C
  H73      1.0000 0.31230  0.60650  0.07300  Biso   1.000  H
  C137     1.0000 0.28780  0.64920  0.10660  Biso   1.000  C
  H74      1.0000 0.31250  0.65910  0.11620  Biso   1.000  H
  C138     1.0000 0.25170  0.66830  0.11930  Biso   1.000  C
  C139     1.0000 0.25070  0.70180  0.14540  Biso   1.000  C
  H75      1.0000 0.27540  0.71260  0.15400  Biso   1.000  H
  C140     1.0000 0.21660  0.71790  0.15800  Biso   1.000  C
  C141     1.0000 0.17830  0.70120  0.14340  Biso   1.000  C
  H76      1.0000 0.15300  0.71310  0.15100  Biso   1.000  H
  C142     1.0000 0.17860  0.67030  0.11870  Biso   1.000  C
  H77      1.0000 0.15380  0.65990  0.10990  Biso   1.000  H
  C143     1.0000 0.21360  0.65160  0.10560  Biso   1.000  C
  C144     1.0000 0.21510  0.61760  0.08080  Biso   1.000  C
  H78      1.0000 0.19010  0.60610  0.07190  Biso   1.000  H
  O23      1.0000 0.28440  0.54780  0.03440  Biso   1.000  O
  O24      1.0000 0.21680  0.54830  0.03400  Biso   1.000  O
  C145     1.0000 0.21666  0.81285  0.75366  Biso   1.000  C
  C146     1.0000 0.18732  0.78303  0.75334  Biso   1.000  C
  H79      1.0000 0.16880  0.78310  0.73130  Biso   1.000  H
  C147     1.0000 0.25060  0.95670  0.56110  Biso   1.000  C
  C148     1.0000 0.25050  0.93050  0.60000  Biso   1.000  C
  C149     1.0000 0.28780  0.91860  0.61730  Biso   1.000  C
  H80      1.0000 0.31270  0.92770  0.60580  Biso   1.000  H
  C150     1.0000 0.28830  0.89340  0.64980  Biso   1.000  C
  H81      1.0000 0.31300  0.88430  0.66020  Biso   1.000  H
  C151     1.0000 0.25200  0.88050  0.66820  Biso   1.000  C
  C152     1.0000 0.25050  0.85500  0.70160  Biso   1.000  C
  H82      1.0000 0.27520  0.84710  0.71320  Biso   1.000  H
  C153     1.0000 0.21610  0.84180  0.71860  Biso   1.000  C
  C154     1.0000 0.17830  0.85600  0.70140  Biso   1.000  C
  H83      1.0000 0.15330  0.84810  0.71350  Biso   1.000  H
  C155     1.0000 0.17790  0.88080  0.67040  Biso   1.000  C
  H84      1.0000 0.15290  0.88920  0.65980  Biso   1.000  H
  C156     1.0000 0.21390  0.89430  0.65190  Biso   1.000  C
  C157     1.0000 0.21490  0.91970  0.61760  Biso   1.000  C
  H85      1.0000 0.18990  0.92870  0.60610  Biso   1.000  H
  O25      1.0000 0.21660  0.96660  0.54840  Biso   1.000  O
  O26      1.0000 0.28480  0.96600  0.54790  Biso   1.000  O
  C158     1.0000 0.24910  0.93870  0.54400  Biso   1.000  C
  C159     1.0000 0.24950  0.89990  0.56960  Biso   1.000  C
  C160     1.0000 0.21270  0.88250  0.58250  Biso   1.000  C
  H86      1.0000 0.18770  0.89350  0.57300  Biso   1.000  H
  C161     1.0000 0.21220  0.85080  0.60660  Biso   1.000  C
  H87      1.0000 0.18750  0.84090  0.61620  Biso   1.000  H
  C162     1.0000 0.24830  0.83170  0.61930  Biso   1.000  C
  C163     1.0000 0.24930  0.79820  0.64540  Biso   1.000  C
  H88      1.0000 0.22460  0.78740  0.65400  Biso   1.000  H
  C164     1.0000 0.28340  0.78210  0.65800  Biso   1.000  C
  C165     1.0000 0.32170  0.79880  0.64340  Biso   1.000  C
  H89      1.0000 0.34700  0.78690  0.65100  Biso   1.000  H
  C166     1.0000 0.32140  0.82970  0.61870  Biso   1.000  C
  H90      1.0000 0.34620  0.84010  0.60990  Biso   1.000  H
  C167     1.0000 0.28640  0.84840  0.60560  Biso   1.000  C
  C168     1.0000 0.28490  0.88240  0.58080  Biso   1.000  C
  H91      1.0000 0.30990  0.89390  0.57190  Biso   1.000  H
  O27      1.0000 0.21560  0.95220  0.53440  Biso   1.000  O
  O28      1.0000 0.28320  0.95170  0.53400  Biso   1.000  O
  C169     1.0000 0.71666  0.31285  0.25366  Biso   1.000  C
  C170     1.0000 0.68732  0.28303  0.25334  Biso   1.000  C
  H92      1.0000 0.66880  0.28310  0.23130  Biso   1.000  H
  C171     1.0000 0.75060  0.45670  0.06110  Biso   1.000  C
  C172     1.0000 0.75050  0.43050  0.10000  Biso   1.000  C
  C173     1.0000 0.78780  0.41860  0.11730  Biso   1.000  C
  H93      1.0000 0.81270  0.42770  0.10580  Biso   1.000  H
  C174     1.0000 0.78830  0.39340  0.14980  Biso   1.000  C
  H94      1.0000 0.81300  0.38430  0.16020  Biso   1.000  H
  C175     1.0000 0.75200  0.38050  0.16820  Biso   1.000  C
  C176     1.0000 0.75050  0.35500  0.20160  Biso   1.000  C
  H95      1.0000 0.77520  0.34710  0.21320  Biso   1.000  H
  C177     1.0000 0.71610  0.34180  0.21860  Biso   1.000  C
  C178     1.0000 0.67830  0.35600  0.20140  Biso   1.000  C
  H96      1.0000 0.65330  0.34810  0.21350  Biso   1.000  H
  C179     1.0000 0.67790  0.38080  0.17040  Biso   1.000  C
  H97      1.0000 0.65290  0.38920  0.15980  Biso   1.000  H
  C180     1.0000 0.71390  0.39430  0.15190  Biso   1.000  C
  C181     1.0000 0.71490  0.41970  0.11760  Biso   1.000  C
  H98      1.0000 0.68990  0.42870  0.10610  Biso   1.000  H
  O29      1.0000 0.71660  0.46660  0.04840  Biso   1.000  O
  O30      1.0000 0.78480  0.46600  0.04790  Biso   1.000  O
  C182     1.0000 0.74910  0.43870  0.04400  Biso   1.000  C
  C183     1.0000 0.74950  0.39990  0.06960  Biso   1.000  C
  C184     1.0000 0.71270  0.38250  0.08250  Biso   1.000  C
  H99      1.0000 0.68770  0.39350  0.07300  Biso   1.000  H
  C185     1.0000 0.71220  0.35080  0.10660  Biso   1.000  C
  H100     1.0000 0.68750  0.34090  0.11620  Biso   1.000  H
  C186     1.0000 0.74830  0.33170  0.11930  Biso   1.000  C
  C187     1.0000 0.74930  0.29820  0.14540  Biso   1.000  C
  H101     1.0000 0.72460  0.28740  0.15400  Biso   1.000  H
  C188     1.0000 0.78340  0.28210  0.15800  Biso   1.000  C
  C189     1.0000 0.82170  0.29880  0.14340  Biso   1.000  C
  H102     1.0000 0.84700  0.28690  0.15100  Biso   1.000  H
  C190     1.0000 0.82140  0.32970  0.11870  Biso   1.000  C
  H103     1.0000 0.84620  0.34010  0.10990  Biso   1.000  H
  C191     1.0000 0.78640  0.34840  0.10560  Biso   1.000  C
  C192     1.0000 0.78490  0.38240  0.08080  Biso   1.000  C
  H104     1.0000 0.80990  0.39390  0.07190  Biso   1.000  H
  O31      1.0000 0.71560  0.45220  0.03440  Biso   1.000  O
  O32      1.0000 0.78320  0.45170  0.03400  Biso   1.000  O
  C193     1.0000 0.24634  0.21666  0.18715  Biso   1.000  C
  C194     1.0000 0.24666  0.18732  0.21697  Biso   1.000  C
  H105     1.0000 0.26870  0.16880  0.21690  Biso   1.000  H
  C195     1.0000 0.43890  0.25060  0.04330  Biso   1.000  C
  C196     1.0000 0.40000  0.25050  0.06950  Biso   1.000  C
  C197     1.0000 0.38270  0.28780  0.08140  Biso   1.000  C
  H106     1.0000 0.39420  0.31270  0.07230  Biso   1.000  H
  C198     1.0000 0.35020  0.28830  0.10660  Biso   1.000  C
  H107     1.0000 0.33980  0.31300  0.11570  Biso   1.000  H
  C199     1.0000 0.33180  0.25200  0.11950  Biso   1.000  C
  C200     1.0000 0.29840  0.25050  0.14500  Biso   1.000  C
  H108     1.0000 0.28680  0.27520  0.15290  Biso   1.000  H
  C201     1.0000 0.28140  0.21610  0.15820  Biso   1.000  C
  C202     1.0000 0.29860  0.17830  0.14400  Biso   1.000  C
  H109     1.0000 0.28650  0.15330  0.15190  Biso   1.000  H
  C203     1.0000 0.32960  0.17790  0.11920  Biso   1.000  C
  H110     1.0000 0.34020  0.15290  0.11080  Biso   1.000  H
  C204     1.0000 0.34810  0.21390  0.10570  Biso   1.000  C
  C205     1.0000 0.38240  0.21490  0.08030  Biso   1.000  C
  H111     1.0000 0.39390  0.18990  0.07130  Biso   1.000  H
  O33      1.0000 0.45160  0.21660  0.03340  Biso   1.000  O
  O34      1.0000 0.45210  0.28480  0.03400  Biso   1.000  O
  C206     1.0000 0.45600  0.24910  0.06130  Biso   1.000  C
  C207     1.0000 0.43040  0.24950  0.10010  Biso   1.000  C
  C208     1.0000 0.41750  0.21270  0.11750  Biso   1.000  C
  H112     1.0000 0.42700  0.18770  0.10650  Biso   1.000  H
  C209     1.0000 0.39340  0.21220  0.14920  Biso   1.000  C
  H113     1.0000 0.38380  0.18750  0.15910  Biso   1.000  H
  C210     1.0000 0.38070  0.24830  0.16830  Biso   1.000  C
  C211     1.0000 0.35460  0.24930  0.20180  Biso   1.000  C
  H114     1.0000 0.34600  0.22460  0.21260  Biso   1.000  H
  C212     1.0000 0.34200  0.28340  0.21790  Biso   1.000  C
  C213     1.0000 0.35660  0.32170  0.20120  Biso   1.000  C
  H115     1.0000 0.34900  0.34700  0.21310  Biso   1.000  H
  C214     1.0000 0.38130  0.32140  0.17030  Biso   1.000  C
  H116     1.0000 0.39010  0.34620  0.15990  Biso   1.000  H
  C215     1.0000 0.39440  0.28640  0.15160  Biso   1.000  C
  C216     1.0000 0.41920  0.28490  0.11760  Biso   1.000  C
  H117     1.0000 0.42810  0.30990  0.10610  Biso   1.000  H
  O35      1.0000 0.46560  0.21560  0.04780  Biso   1.000  O
  O36      1.0000 0.46600  0.28320  0.04830  Biso   1.000  O
  C217     1.0000 0.74634  0.71666  0.68715  Biso   1.000  C
  C218     1.0000 0.74666  0.68732  0.71697  Biso   1.000  C
  H118     1.0000 0.76870  0.66880  0.71690  Biso   1.000  H
  C219     1.0000 0.93890  0.75060  0.54330  Biso   1.000  C
  C220     1.0000 0.90000  0.75050  0.56950  Biso   1.000  C
  C221     1.0000 0.88270  0.78780  0.58140  Biso   1.000  C
  H119     1.0000 0.89420  0.81270  0.57230  Biso   1.000  H
  C222     1.0000 0.85020  0.78830  0.60660  Biso   1.000  C
  H120     1.0000 0.83980  0.81300  0.61570  Biso   1.000  H
  C223     1.0000 0.83180  0.75200  0.61950  Biso   1.000  C
  C224     1.0000 0.79840  0.75050  0.64500  Biso   1.000  C
  H121     1.0000 0.78680  0.77520  0.65290  Biso   1.000  H
  C225     1.0000 0.78140  0.71610  0.65820  Biso   1.000  C
  C226     1.0000 0.79860  0.67830  0.64400  Biso   1.000  C
  H122     1.0000 0.78650  0.65330  0.65190  Biso   1.000  H
  C227     1.0000 0.82960  0.67790  0.61920  Biso   1.000  C
  H123     1.0000 0.84020  0.65290  0.61080  Biso   1.000  H
  C228     1.0000 0.84810  0.71390  0.60570  Biso   1.000  C
  C229     1.0000 0.88240  0.71490  0.58030  Biso   1.000  C
  H124     1.0000 0.89390  0.68990  0.57130  Biso   1.000  H
  O37      1.0000 0.95160  0.71660  0.53340  Biso   1.000  O
  O38      1.0000 0.95210  0.78480  0.53400  Biso   1.000  O
  C230     1.0000 0.95600  0.74910  0.56130  Biso   1.000  C
  C231     1.0000 0.93040  0.74950  0.60010  Biso   1.000  C
  C232     1.0000 0.91750  0.71270  0.61750  Biso   1.000  C
  H125     1.0000 0.92700  0.68770  0.60650  Biso   1.000  H
  C233     1.0000 0.89340  0.71220  0.64920  Biso   1.000  C
  H126     1.0000 0.88380  0.68750  0.65910  Biso   1.000  H
  C234     1.0000 0.88070  0.74830  0.66830  Biso   1.000  C
  C235     1.0000 0.85460  0.74930  0.70180  Biso   1.000  C
  H127     1.0000 0.84600  0.72460  0.71260  Biso   1.000  H
  C236     1.0000 0.84200  0.78340  0.71790  Biso   1.000  C
  C237     1.0000 0.85660  0.82170  0.70120  Biso   1.000  C
  H128     1.0000 0.84900  0.84700  0.71310  Biso   1.000  H
  C238     1.0000 0.88130  0.82140  0.67030  Biso   1.000  C
  H129     1.0000 0.89010  0.84620  0.65990  Biso   1.000  H
  C239     1.0000 0.89440  0.78640  0.65160  Biso   1.000  C
  C240     1.0000 0.91920  0.78490  0.61760  Biso   1.000  C
  H130     1.0000 0.92810  0.80990  0.60610  Biso   1.000  H
  O39      1.0000 0.96560  0.71560  0.54780  Biso   1.000  O
  O40      1.0000 0.96600  0.78320  0.54830  Biso   1.000  O
  C241     1.0000 0.24634  0.78334  0.81285  Biso   1.000  C
  C242     1.0000 0.24666  0.81268  0.78303  Biso   1.000  C
  H131     1.0000 0.26870  0.83120  0.78310  Biso   1.000  H
  C243     1.0000 0.43890  0.74940  0.95670  Biso   1.000  C
  C244     1.0000 0.40000  0.74950  0.93050  Biso   1.000  C
  C245     1.0000 0.38270  0.71220  0.91860  Biso   1.000  C
  H132     1.0000 0.39420  0.68730  0.92770  Biso   1.000  H
  C246     1.0000 0.35020  0.71170  0.89340  Biso   1.000  C
  H133     1.0000 0.33980  0.68700  0.88430  Biso   1.000  H
  C247     1.0000 0.33180  0.74800  0.88050  Biso   1.000  C
  C248     1.0000 0.29840  0.74950  0.85500  Biso   1.000  C
  H134     1.0000 0.28680  0.72480  0.84710  Biso   1.000  H
  C249     1.0000 0.28140  0.78390  0.84180  Biso   1.000  C
  C250     1.0000 0.29860  0.82170  0.85600  Biso   1.000  C
  H135     1.0000 0.28650  0.84670  0.84810  Biso   1.000  H
  C251     1.0000 0.32960  0.82210  0.88080  Biso   1.000  C
  H136     1.0000 0.34020  0.84710  0.88920  Biso   1.000  H
  C252     1.0000 0.34810  0.78610  0.89430  Biso   1.000  C
  C253     1.0000 0.38240  0.78510  0.91970  Biso   1.000  C
  H137     1.0000 0.39390  0.81010  0.92870  Biso   1.000  H
  O41      1.0000 0.45160  0.78340  0.96660  Biso   1.000  O
  O42      1.0000 0.45210  0.71520  0.96600  Biso   1.000  O
  C254     1.0000 0.45600  0.75090  0.93870  Biso   1.000  C
  C255     1.0000 0.43040  0.75050  0.89990  Biso   1.000  C
  C256     1.0000 0.41750  0.78730  0.88250  Biso   1.000  C
  H138     1.0000 0.42700  0.81230  0.89350  Biso   1.000  H
  C257     1.0000 0.39340  0.78780  0.85080  Biso   1.000  C
  H139     1.0000 0.38380  0.81250  0.84090  Biso   1.000  H
  C258     1.0000 0.38070  0.75170  0.83170  Biso   1.000  C
  C259     1.0000 0.35460  0.75070  0.79820  Biso   1.000  C
  H140     1.0000 0.34600  0.77540  0.78740  Biso   1.000  H
  C260     1.0000 0.34200  0.71660  0.78210  Biso   1.000  C
  C261     1.0000 0.35660  0.67830  0.79880  Biso   1.000  C
  H141     1.0000 0.34900  0.65300  0.78690  Biso   1.000  H
  C262     1.0000 0.38130  0.67860  0.82970  Biso   1.000  C
  H142     1.0000 0.39010  0.65380  0.84010  Biso   1.000  H
  C263     1.0000 0.39440  0.71360  0.84840  Biso   1.000  C
  C264     1.0000 0.41920  0.71510  0.88240  Biso   1.000  C
  H143     1.0000 0.42810  0.69010  0.89390  Biso   1.000  H
  O43      1.0000 0.46560  0.78440  0.95220  Biso   1.000  O
  O44      1.0000 0.46600  0.71680  0.95170  Biso   1.000  O
  C265     1.0000 0.74634  0.28334  0.31285  Biso   1.000  C
  C266     1.0000 0.74666  0.31268  0.28303  Biso   1.000  C
  H144     1.0000 0.76870  0.33120  0.28310  Biso   1.000  H
  C267     1.0000 0.93890  0.24940  0.45670  Biso   1.000  C
  C268     1.0000 0.90000  0.24950  0.43050  Biso   1.000  C
  C269     1.0000 0.88270  0.21220  0.41860  Biso   1.000  C
  H145     1.0000 0.89420  0.18730  0.42770  Biso   1.000  H
  C270     1.0000 0.85020  0.21170  0.39340  Biso   1.000  C
  H146     1.0000 0.83980  0.18700  0.38430  Biso   1.000  H
  C271     1.0000 0.83180  0.24800  0.38050  Biso   1.000  C
  C272     1.0000 0.79840  0.24950  0.35500  Biso   1.000  C
  H147     1.0000 0.78680  0.22480  0.34710  Biso   1.000  H
  C273     1.0000 0.78140  0.28390  0.34180  Biso   1.000  C
  C274     1.0000 0.79860  0.32170  0.35600  Biso   1.000  C
  H148     1.0000 0.78650  0.34670  0.34810  Biso   1.000  H
  C275     1.0000 0.82960  0.32210  0.38080  Biso   1.000  C
  H149     1.0000 0.84020  0.34710  0.38920  Biso   1.000  H
  C276     1.0000 0.84810  0.28610  0.39430  Biso   1.000  C
  C277     1.0000 0.88240  0.28510  0.41970  Biso   1.000  C
  H150     1.0000 0.89390  0.31010  0.42870  Biso   1.000  H
  O45      1.0000 0.95160  0.28340  0.46660  Biso   1.000  O
  O46      1.0000 0.95210  0.21520  0.46600  Biso   1.000  O
  C278     1.0000 0.95600  0.25090  0.43870  Biso   1.000  C
  C279     1.0000 0.93040  0.25050  0.39990  Biso   1.000  C
  C280     1.0000 0.91750  0.28730  0.38250  Biso   1.000  C
  H151     1.0000 0.92700  0.31230  0.39350  Biso   1.000  H
  C281     1.0000 0.89340  0.28780  0.35080  Biso   1.000  C
  H152     1.0000 0.88380  0.31250  0.34090  Biso   1.000  H
  C282     1.0000 0.88070  0.25170  0.33170  Biso   1.000  C
  C283     1.0000 0.85460  0.25070  0.29820  Biso   1.000  C
  H153     1.0000 0.84600  0.27540  0.28740  Biso   1.000  H
  C284     1.0000 0.84200  0.21660  0.28210  Biso   1.000  C
  C285     1.0000 0.85660  0.17830  0.29880  Biso   1.000  C
  H154     1.0000 0.84900  0.15300  0.28690  Biso   1.000  H
  C286     1.0000 0.88130  0.17860  0.32970  Biso   1.000  C
  H155     1.0000 0.89010  0.15380  0.34010  Biso   1.000  H
  C287     1.0000 0.89440  0.21360  0.34840  Biso   1.000  C
  C288     1.0000 0.91920  0.21510  0.38240  Biso   1.000  C
  H156     1.0000 0.92810  0.19010  0.39390  Biso   1.000  H
  O47      1.0000 0.96560  0.28440  0.45220  Biso   1.000  O
  O48      1.0000 0.96600  0.21680  0.45170  Biso   1.000  O
  C289     1.0000 0.75366  0.78334  0.18715  Biso   1.000  C
  C290     1.0000 0.75334  0.81268  0.21697  Biso   1.000  C
  H157     1.0000 0.73130  0.83120  0.21690  Biso   1.000  H
  C291     1.0000 0.56110  0.74940  0.04330  Biso   1.000  C
  C292     1.0000 0.60000  0.74950  0.06950  Biso   1.000  C
  C293     1.0000 0.61730  0.71220  0.08140  Biso   1.000  C
  H158     1.0000 0.60580  0.68730  0.07230  Biso   1.000  H
  C294     1.0000 0.64980  0.71170  0.10660  Biso   1.000  C
  H159     1.0000 0.66020  0.68700  0.11570  Biso   1.000  H
  C295     1.0000 0.66820  0.74800  0.11950  Biso   1.000  C
  C296     1.0000 0.70160  0.74950  0.14500  Biso   1.000  C
  H160     1.0000 0.71320  0.72480  0.15290  Biso   1.000  H
  C297     1.0000 0.71860  0.78390  0.15820  Biso   1.000  C
  C298     1.0000 0.70140  0.82170  0.14400  Biso   1.000  C
  H161     1.0000 0.71350  0.84670  0.15190  Biso   1.000  H
  C299     1.0000 0.67040  0.82210  0.11920  Biso   1.000  C
  H162     1.0000 0.65980  0.84710  0.11080  Biso   1.000  H
  C300     1.0000 0.65190  0.78610  0.10570  Biso   1.000  C
  C301     1.0000 0.61760  0.78510  0.08030  Biso   1.000  C
  H163     1.0000 0.60610  0.81010  0.07130  Biso   1.000  H
  O49      1.0000 0.54840  0.78340  0.03340  Biso   1.000  O
  O50      1.0000 0.54790  0.71520  0.03400  Biso   1.000  O
  C302     1.0000 0.54400  0.75090  0.06130  Biso   1.000  C
  C303     1.0000 0.56960  0.75050  0.10010  Biso   1.000  C
  C304     1.0000 0.58250  0.78730  0.11750  Biso   1.000  C
  H164     1.0000 0.57300  0.81230  0.10650  Biso   1.000  H
  C305     1.0000 0.60660  0.78780  0.14920  Biso   1.000  C
  H165     1.0000 0.61620  0.81250  0.15910  Biso   1.000  H
  C306     1.0000 0.61930  0.75170  0.16830  Biso   1.000  C
  C307     1.0000 0.64540  0.75070  0.20180  Biso   1.000  C
  H166     1.0000 0.65400  0.77540  0.21260  Biso   1.000  H
  C308     1.0000 0.65800  0.71660  0.21790  Biso   1.000  C
  C309     1.0000 0.64340  0.67830  0.20120  Biso   1.000  C
  H167     1.0000 0.65100  0.65300  0.21310  Biso   1.000  H
  C310     1.0000 0.61870  0.67860  0.17030  Biso   1.000  C
  H168     1.0000 0.60990  0.65380  0.15990  Biso   1.000  H
  C311     1.0000 0.60560  0.71360  0.15160  Biso   1.000  C
  C312     1.0000 0.58080  0.71510  0.11760  Biso   1.000  C
  H169     1.0000 0.57190  0.69010  0.10610  Biso   1.000  H
  O51      1.0000 0.53440  0.78440  0.04780  Biso   1.000  O
  O52      1.0000 0.53400  0.71680  0.04830  Biso   1.000  O
  C313     1.0000 0.25366  0.28334  0.68715  Biso   1.000  C
  C314     1.0000 0.25334  0.31268  0.71697  Biso   1.000  C
  H170     1.0000 0.23130  0.33120  0.71690  Biso   1.000  H
  C315     1.0000 0.06110  0.24940  0.54330  Biso   1.000  C
  C316     1.0000 0.10000  0.24950  0.56950  Biso   1.000  C
  C317     1.0000 0.11730  0.21220  0.58140  Biso   1.000  C
  H171     1.0000 0.10580  0.18730  0.57230  Biso   1.000  H
  C318     1.0000 0.14980  0.21170  0.60660  Biso   1.000  C
  H172     1.0000 0.16020  0.18700  0.61570  Biso   1.000  H
  C319     1.0000 0.16820  0.24800  0.61950  Biso   1.000  C
  C320     1.0000 0.20160  0.24950  0.64500  Biso   1.000  C
  H173     1.0000 0.21320  0.22480  0.65290  Biso   1.000  H
  C321     1.0000 0.21860  0.28390  0.65820  Biso   1.000  C
  C322     1.0000 0.20140  0.32170  0.64400  Biso   1.000  C
  H174     1.0000 0.21350  0.34670  0.65190  Biso   1.000  H
  C323     1.0000 0.17040  0.32210  0.61920  Biso   1.000  C
  H175     1.0000 0.15980  0.34710  0.61080  Biso   1.000  H
  C324     1.0000 0.15190  0.28610  0.60570  Biso   1.000  C
  C325     1.0000 0.11760  0.28510  0.58030  Biso   1.000  C
  H176     1.0000 0.10610  0.31010  0.57130  Biso   1.000  H
  O53      1.0000 0.04840  0.28340  0.53340  Biso   1.000  O
  O54      1.0000 0.04790  0.21520  0.53400  Biso   1.000  O
  C326     1.0000 0.04400  0.25090  0.56130  Biso   1.000  C
  C327     1.0000 0.06960  0.25050  0.60010  Biso   1.000  C
  C328     1.0000 0.08250  0.28730  0.61750  Biso   1.000  C
  H177     1.0000 0.07300  0.31230  0.60650  Biso   1.000  H
  C329     1.0000 0.10660  0.28780  0.64920  Biso   1.000  C
  H178     1.0000 0.11620  0.31250  0.65910  Biso   1.000  H
  C330     1.0000 0.11930  0.25170  0.66830  Biso   1.000  C
  C331     1.0000 0.14540  0.25070  0.70180  Biso   1.000  C
  H179     1.0000 0.15400  0.27540  0.71260  Biso   1.000  H
  C332     1.0000 0.15800  0.21660  0.71790  Biso   1.000  C
  C333     1.0000 0.14340  0.17830  0.70120  Biso   1.000  C
  H180     1.0000 0.15100  0.15300  0.71310  Biso   1.000  H
  C334     1.0000 0.11870  0.17860  0.67030  Biso   1.000  C
  H181     1.0000 0.10990  0.15380  0.65990  Biso   1.000  H
  C335     1.0000 0.10560  0.21360  0.65160  Biso   1.000  C
  C336     1.0000 0.08080  0.21510  0.61760  Biso   1.000  C
  H182     1.0000 0.07190  0.19010  0.60610  Biso   1.000  H
  O55      1.0000 0.03440  0.28440  0.54780  Biso   1.000  O
  O56      1.0000 0.03400  0.21680  0.54830  Biso   1.000  O
  C337     1.0000 0.75366  0.21666  0.81285  Biso   1.000  C
  C338     1.0000 0.75334  0.18732  0.78303  Biso   1.000  C
  H183     1.0000 0.73130  0.16880  0.78310  Biso   1.000  H
  C339     1.0000 0.56110  0.25060  0.95670  Biso   1.000  C
  C340     1.0000 0.60000  0.25050  0.93050  Biso   1.000  C
  C341     1.0000 0.61730  0.28780  0.91860  Biso   1.000  C
  H184     1.0000 0.60580  0.31270  0.92770  Biso   1.000  H
  C342     1.0000 0.64980  0.28830  0.89340  Biso   1.000  C
  H185     1.0000 0.66020  0.31300  0.88430  Biso   1.000  H
  C343     1.0000 0.66820  0.25200  0.88050  Biso   1.000  C
  C344     1.0000 0.70160  0.25050  0.85500  Biso   1.000  C
  H186     1.0000 0.71320  0.27520  0.84710  Biso   1.000  H
  C345     1.0000 0.71860  0.21610  0.84180  Biso   1.000  C
  C346     1.0000 0.70140  0.17830  0.85600  Biso   1.000  C
  H187     1.0000 0.71350  0.15330  0.84810  Biso   1.000  H
  C347     1.0000 0.67040  0.17790  0.88080  Biso   1.000  C
  H188     1.0000 0.65980  0.15290  0.88920  Biso   1.000  H
  C348     1.0000 0.65190  0.21390  0.89430  Biso   1.000  C
  C349     1.0000 0.61760  0.21490  0.91970  Biso   1.000  C
  H189     1.0000 0.60610  0.18990  0.92870  Biso   1.000  H
  O57      1.0000 0.54840  0.21660  0.96660  Biso   1.000  O
  O58      1.0000 0.54790  0.28480  0.96600  Biso   1.000  O
  C350     1.0000 0.54400  0.24910  0.93870  Biso   1.000  C
  C351     1.0000 0.56960  0.24950  0.89990  Biso   1.000  C
  C352     1.0000 0.58250  0.21270  0.88250  Biso   1.000  C
  H190     1.0000 0.57300  0.18770  0.89350  Biso   1.000  H
  C353     1.0000 0.60660  0.21220  0.85080  Biso   1.000  C
  H191     1.0000 0.61620  0.18750  0.84090  Biso   1.000  H
  C354     1.0000 0.61930  0.24830  0.83170  Biso   1.000  C
  C355     1.0000 0.64540  0.24930  0.79820  Biso   1.000  C
  H192     1.0000 0.65400  0.22460  0.78740  Biso   1.000  H
  C356     1.0000 0.65800  0.28340  0.78210  Biso   1.000  C
  C357     1.0000 0.64340  0.32170  0.79880  Biso   1.000  C
  H193     1.0000 0.65100  0.34700  0.78690  Biso   1.000  H
  C358     1.0000 0.61870  0.32140  0.82970  Biso   1.000  C
  H194     1.0000 0.60990  0.34620  0.84010  Biso   1.000  H
  C359     1.0000 0.60560  0.28640  0.84840  Biso   1.000  C
  C360     1.0000 0.58080  0.28490  0.88240  Biso   1.000  C
  H195     1.0000 0.57190  0.30990  0.89390  Biso   1.000  H
  O59      1.0000 0.53440  0.21560  0.95220  Biso   1.000  O
  O60      1.0000 0.53400  0.28320  0.95170  Biso   1.000  O
  C361     1.0000 0.25366  0.71666  0.31285  Biso   1.000  C
  C362     1.0000 0.25334  0.68732  0.28303  Biso   1.000  C
  H196     1.0000 0.23130  0.66880  0.28310  Biso   1.000  H
  C363     1.0000 0.06110  0.75060  0.45670  Biso   1.000  C
  C364     1.0000 0.10000  0.75050  0.43050  Biso   1.000  C
  C365     1.0000 0.11730  0.78780  0.41860  Biso   1.000  C
  H197     1.0000 0.10580  0.81270  0.42770  Biso   1.000  H
  C366     1.0000 0.14980  0.78830  0.39340  Biso   1.000  C
  H198     1.0000 0.16020  0.81300  0.38430  Biso   1.000  H
  C367     1.0000 0.16820  0.75200  0.38050  Biso   1.000  C
  C368     1.0000 0.20160  0.75050  0.35500  Biso   1.000  C
  H199     1.0000 0.21320  0.77520  0.34710  Biso   1.000  H
  C369     1.0000 0.21860  0.71610  0.34180  Biso   1.000  C
  C370     1.0000 0.20140  0.67830  0.35600  Biso   1.000  C
  H200     1.0000 0.21350  0.65330  0.34810  Biso   1.000  H
  C371     1.0000 0.17040  0.67790  0.38080  Biso   1.000  C
  H201     1.0000 0.15980  0.65290  0.38920  Biso   1.000  H
  C372     1.0000 0.15190  0.71390  0.39430  Biso   1.000  C
  C373     1.0000 0.11760  0.71490  0.41970  Biso   1.000  C
  H202     1.0000 0.10610  0.68990  0.42870  Biso   1.000  H
  O61      1.0000 0.04840  0.71660  0.46660  Biso   1.000  O
  O62      1.0000 0.04790  0.78480  0.46600  Biso   1.000  O
  C374     1.0000 0.04400  0.74910  0.43870  Biso   1.000  C
  C375     1.0000 0.06960  0.74950  0.39990  Biso   1.000  C
  C376     1.0000 0.08250  0.71270  0.38250  Biso   1.000  C
  H203     1.0000 0.07300  0.68770  0.39350  Biso   1.000  H
  C377     1.0000 0.10660  0.71220  0.35080  Biso   1.000  C
  H204     1.0000 0.11620  0.68750  0.34090  Biso   1.000  H
  C378     1.0000 0.11930  0.74830  0.33170  Biso   1.000  C
  C379     1.0000 0.14540  0.74930  0.29820  Biso   1.000  C
  H205     1.0000 0.15400  0.72460  0.28740  Biso   1.000  H
  C380     1.0000 0.15800  0.78340  0.28210  Biso   1.000  C
  C381     1.0000 0.14340  0.82170  0.29880  Biso   1.000  C
  H206     1.0000 0.15100  0.84700  0.28690  Biso   1.000  H
  C382     1.0000 0.11870  0.82140  0.32970  Biso   1.000  C
  H207     1.0000 0.10990  0.84620  0.34010  Biso   1.000  H
  C383     1.0000 0.10560  0.78640  0.34840  Biso   1.000  C
  C384     1.0000 0.08080  0.78490  0.38240  Biso   1.000  C
  H208     1.0000 0.07190  0.80990  0.39390  Biso   1.000  H
  O63      1.0000 0.03440  0.71560  0.45220  Biso   1.000  O
  O64      1.0000 0.03400  0.78320  0.45170  Biso   1.000  O
  C385     1.0000 0.18715  0.24634  0.21666  Biso   1.000  C
  C386     1.0000 0.21697  0.24666  0.18732  Biso   1.000  C
  H209     1.0000 0.21690  0.26870  0.16880  Biso   1.000  H
  C387     1.0000 0.04330  0.43890  0.25060  Biso   1.000  C
  C388     1.0000 0.06950  0.40000  0.25050  Biso   1.000  C
  C389     1.0000 0.08140  0.38270  0.28780  Biso   1.000  C
  H210     1.0000 0.07230  0.39420  0.31270  Biso   1.000  H
  C390     1.0000 0.10660  0.35020  0.28830  Biso   1.000  C
  H211     1.0000 0.11570  0.33980  0.31300  Biso   1.000  H
  C391     1.0000 0.11950  0.33180  0.25200  Biso   1.000  C
  C392     1.0000 0.14500  0.29840  0.25050  Biso   1.000  C
  H212     1.0000 0.15290  0.28680  0.27520  Biso   1.000  H
  C393     1.0000 0.15820  0.28140  0.21610  Biso   1.000  C
  C394     1.0000 0.14400  0.29860  0.17830  Biso   1.000  C
  H213     1.0000 0.15190  0.28650  0.15330  Biso   1.000  H
  C395     1.0000 0.11920  0.32960  0.17790  Biso   1.000  C
  H214     1.0000 0.11080  0.34020  0.15290  Biso   1.000  H
  C396     1.0000 0.10570  0.34810  0.21390  Biso   1.000  C
  C397     1.0000 0.08030  0.38240  0.21490  Biso   1.000  C
  H215     1.0000 0.07130  0.39390  0.18990  Biso   1.000  H
  O65      1.0000 0.03340  0.45160  0.21660  Biso   1.000  O
  O66      1.0000 0.03400  0.45210  0.28480  Biso   1.000  O
  C398     1.0000 0.06130  0.45600  0.24910  Biso   1.000  C
  C399     1.0000 0.10010  0.43040  0.24950  Biso   1.000  C
  C400     1.0000 0.11750  0.41750  0.21270  Biso   1.000  C
  H216     1.0000 0.10650  0.42700  0.18770  Biso   1.000  H
  C401     1.0000 0.14920  0.39340  0.21220  Biso   1.000  C
  H217     1.0000 0.15910  0.38380  0.18750  Biso   1.000  H
  C402     1.0000 0.16830  0.38070  0.24830  Biso   1.000  C
  C403     1.0000 0.20180  0.35460  0.24930  Biso   1.000  C
  H218     1.0000 0.21260  0.34600  0.22460  Biso   1.000  H
  C404     1.0000 0.21790  0.34200  0.28340  Biso   1.000  C
  C405     1.0000 0.20120  0.35660  0.32170  Biso   1.000  C
  H219     1.0000 0.21310  0.34900  0.34700  Biso   1.000  H
  C406     1.0000 0.17030  0.38130  0.32140  Biso   1.000  C
  H220     1.0000 0.15990  0.39010  0.34620  Biso   1.000  H
  C407     1.0000 0.15160  0.39440  0.28640  Biso   1.000  C
  C408     1.0000 0.11760  0.41920  0.28490  Biso   1.000  C
  H221     1.0000 0.10610  0.42810  0.30990  Biso   1.000  H
  O67      1.0000 0.04780  0.46560  0.21560  Biso   1.000  O
  O68      1.0000 0.04830  0.46600  0.28320  Biso   1.000  O
  C409     1.0000 0.68715  0.74634  0.71666  Biso   1.000  C
  C410     1.0000 0.71697  0.74666  0.68732  Biso   1.000  C
  H222     1.0000 0.71690  0.76870  0.66880  Biso   1.000  H
  C411     1.0000 0.54330  0.93890  0.75060  Biso   1.000  C
  C412     1.0000 0.56950  0.90000  0.75050  Biso   1.000  C
  C413     1.0000 0.58140  0.88270  0.78780  Biso   1.000  C
  H223     1.0000 0.57230  0.89420  0.81270  Biso   1.000  H
  C414     1.0000 0.60660  0.85020  0.78830  Biso   1.000  C
  H224     1.0000 0.61570  0.83980  0.81300  Biso   1.000  H
  C415     1.0000 0.61950  0.83180  0.75200  Biso   1.000  C
  C416     1.0000 0.64500  0.79840  0.75050  Biso   1.000  C
  H225     1.0000 0.65290  0.78680  0.77520  Biso   1.000  H
  C417     1.0000 0.65820  0.78140  0.71610  Biso   1.000  C
  C418     1.0000 0.64400  0.79860  0.67830  Biso   1.000  C
  H226     1.0000 0.65190  0.78650  0.65330  Biso   1.000  H
  C419     1.0000 0.61920  0.82960  0.67790  Biso   1.000  C
  H227     1.0000 0.61080  0.84020  0.65290  Biso   1.000  H
  C420     1.0000 0.60570  0.84810  0.71390  Biso   1.000  C
  C421     1.0000 0.58030  0.88240  0.71490  Biso   1.000  C
  H228     1.0000 0.57130  0.89390  0.68990  Biso   1.000  H
  O69      1.0000 0.53340  0.95160  0.71660  Biso   1.000  O
  O70      1.0000 0.53400  0.95210  0.78480  Biso   1.000  O
  C422     1.0000 0.56130  0.95600  0.74910  Biso   1.000  C
  C423     1.0000 0.60010  0.93040  0.74950  Biso   1.000  C
  C424     1.0000 0.61750  0.91750  0.71270  Biso   1.000  C
  H229     1.0000 0.60650  0.92700  0.68770  Biso   1.000  H
  C425     1.0000 0.64920  0.89340  0.71220  Biso   1.000  C
  H230     1.0000 0.65910  0.88380  0.68750  Biso   1.000  H
  C426     1.0000 0.66830  0.88070  0.74830  Biso   1.000  C
  C427     1.0000 0.70180  0.85460  0.74930  Biso   1.000  C
  H231     1.0000 0.71260  0.84600  0.72460  Biso   1.000  H
  C428     1.0000 0.71790  0.84200  0.78340  Biso   1.000  C
  C429     1.0000 0.70120  0.85660  0.82170  Biso   1.000  C
  H232     1.0000 0.71310  0.84900  0.84700  Biso   1.000  H
  C430     1.0000 0.67030  0.88130  0.82140  Biso   1.000  C
  H233     1.0000 0.65990  0.89010  0.84620  Biso   1.000  H
  C431     1.0000 0.65160  0.89440  0.78640  Biso   1.000  C
  C432     1.0000 0.61760  0.91920  0.78490  Biso   1.000  C
  H234     1.0000 0.60610  0.92810  0.80990  Biso   1.000  H
  O71      1.0000 0.54780  0.96560  0.71560  Biso   1.000  O
  O72      1.0000 0.54830  0.96600  0.78320  Biso   1.000  O
  C433     1.0000 0.81285  0.24634  0.78334  Biso   1.000  C
  C434     1.0000 0.78303  0.24666  0.81268  Biso   1.000  C
  H235     1.0000 0.78310  0.26870  0.83120  Biso   1.000  H
  C435     1.0000 0.95670  0.43890  0.74940  Biso   1.000  C
  C436     1.0000 0.93050  0.40000  0.74950  Biso   1.000  C
  C437     1.0000 0.91860  0.38270  0.71220  Biso   1.000  C
  H236     1.0000 0.92770  0.39420  0.68730  Biso   1.000  H
  C438     1.0000 0.89340  0.35020  0.71170  Biso   1.000  C
  H237     1.0000 0.88430  0.33980  0.68700  Biso   1.000  H
  C439     1.0000 0.88050  0.33180  0.74800  Biso   1.000  C
  C440     1.0000 0.85500  0.29840  0.74950  Biso   1.000  C
  H238     1.0000 0.84710  0.28680  0.72480  Biso   1.000  H
  C441     1.0000 0.84180  0.28140  0.78390  Biso   1.000  C
  C442     1.0000 0.85600  0.29860  0.82170  Biso   1.000  C
  H239     1.0000 0.84810  0.28650  0.84670  Biso   1.000  H
  C443     1.0000 0.88080  0.32960  0.82210  Biso   1.000  C
  H240     1.0000 0.88920  0.34020  0.84710  Biso   1.000  H
  C444     1.0000 0.89430  0.34810  0.78610  Biso   1.000  C
  C445     1.0000 0.91970  0.38240  0.78510  Biso   1.000  C
  H241     1.0000 0.92870  0.39390  0.81010  Biso   1.000  H
  O73      1.0000 0.96660  0.45160  0.78340  Biso   1.000  O
  O74      1.0000 0.96600  0.45210  0.71520  Biso   1.000  O
  C446     1.0000 0.93870  0.45600  0.75090  Biso   1.000  C
  C447     1.0000 0.89990  0.43040  0.75050  Biso   1.000  C
  C448     1.0000 0.88250  0.41750  0.78730  Biso   1.000  C
  H242     1.0000 0.89350  0.42700  0.81230  Biso   1.000  H
  C449     1.0000 0.85080  0.39340  0.78780  Biso   1.000  C
  H243     1.0000 0.84090  0.38380  0.81250  Biso   1.000  H
  C450     1.0000 0.83170  0.38070  0.75170  Biso   1.000  C
  C451     1.0000 0.79820  0.35460  0.75070  Biso   1.000  C
  H244     1.0000 0.78740  0.34600  0.77540  Biso   1.000  H
  C452     1.0000 0.78210  0.34200  0.71660  Biso   1.000  C
  C453     1.0000 0.79880  0.35660  0.67830  Biso   1.000  C
  H245     1.0000 0.78690  0.34900  0.65300  Biso   1.000  H
  C454     1.0000 0.82970  0.38130  0.67860  Biso   1.000  C
  H246     1.0000 0.84010  0.39010  0.65380  Biso   1.000  H
  C455     1.0000 0.84840  0.39440  0.71360  Biso   1.000  C
  C456     1.0000 0.88240  0.41920  0.71510  Biso   1.000  C
  H247     1.0000 0.89390  0.42810  0.69010  Biso   1.000  H
  O75      1.0000 0.95220  0.46560  0.78440  Biso   1.000  O
  O76      1.0000 0.95170  0.46600  0.71680  Biso   1.000  O
  C457     1.0000 0.31285  0.74634  0.28334  Biso   1.000  C
  C458     1.0000 0.28303  0.74666  0.31268  Biso   1.000  C
  H248     1.0000 0.28310  0.76870  0.33120  Biso   1.000  H
  C459     1.0000 0.45670  0.93890  0.24940  Biso   1.000  C
  C460     1.0000 0.43050  0.90000  0.24950  Biso   1.000  C
  C461     1.0000 0.41860  0.88270  0.21220  Biso   1.000  C
  H249     1.0000 0.42770  0.89420  0.18730  Biso   1.000  H
  C462     1.0000 0.39340  0.85020  0.21170  Biso   1.000  C
  H250     1.0000 0.38430  0.83980  0.18700  Biso   1.000  H
  C463     1.0000 0.38050  0.83180  0.24800  Biso   1.000  C
  C464     1.0000 0.35500  0.79840  0.24950  Biso   1.000  C
  H251     1.0000 0.34710  0.78680  0.22480  Biso   1.000  H
  C465     1.0000 0.34180  0.78140  0.28390  Biso   1.000  C
  C466     1.0000 0.35600  0.79860  0.32170  Biso   1.000  C
  H252     1.0000 0.34810  0.78650  0.34670  Biso   1.000  H
  C467     1.0000 0.38080  0.82960  0.32210  Biso   1.000  C
  H253     1.0000 0.38920  0.84020  0.34710  Biso   1.000  H
  C468     1.0000 0.39430  0.84810  0.28610  Biso   1.000  C
  C469     1.0000 0.41970  0.88240  0.28510  Biso   1.000  C
  H254     1.0000 0.42870  0.89390  0.31010  Biso   1.000  H
  O77      1.0000 0.46660  0.95160  0.28340  Biso   1.000  O
  O78      1.0000 0.46600  0.95210  0.21520  Biso   1.000  O
  C470     1.0000 0.43870  0.95600  0.25090  Biso   1.000  C
  C471     1.0000 0.39990  0.93040  0.25050  Biso   1.000  C
  C472     1.0000 0.38250  0.91750  0.28730  Biso   1.000  C
  H255     1.0000 0.39350  0.92700  0.31230  Biso   1.000  H
  C473     1.0000 0.35080  0.89340  0.28780  Biso   1.000  C
  H256     1.0000 0.34090  0.88380  0.31250  Biso   1.000  H
  C474     1.0000 0.33170  0.88070  0.25170  Biso   1.000  C
  C475     1.0000 0.29820  0.85460  0.25070  Biso   1.000  C
  H257     1.0000 0.28740  0.84600  0.27540  Biso   1.000  H
  C476     1.0000 0.28210  0.84200  0.21660  Biso   1.000  C
  C477     1.0000 0.29880  0.85660  0.17830  Biso   1.000  C
  H258     1.0000 0.28690  0.84900  0.15300  Biso   1.000  H
  C478     1.0000 0.32970  0.88130  0.17860  Biso   1.000  C
  H259     1.0000 0.34010  0.89010  0.15380  Biso   1.000  H
  C479     1.0000 0.34840  0.89440  0.21360  Biso   1.000  C
  C480     1.0000 0.38240  0.91920  0.21510  Biso   1.000  C
  H260     1.0000 0.39390  0.92810  0.19010  Biso   1.000  H
  O79      1.0000 0.45220  0.96560  0.28440  Biso   1.000  O
  O80      1.0000 0.45170  0.96600  0.21680  Biso   1.000  O
  C481     1.0000 0.18715  0.75366  0.78334  Biso   1.000  C
  C482     1.0000 0.21697  0.75334  0.81268  Biso   1.000  C
  H261     1.0000 0.21690  0.73130  0.83120  Biso   1.000  H
  C483     1.0000 0.04330  0.56110  0.74940  Biso   1.000  C
  C484     1.0000 0.06950  0.60000  0.74950  Biso   1.000  C
  C485     1.0000 0.08140  0.61730  0.71220  Biso   1.000  C
  H262     1.0000 0.07230  0.60580  0.68730  Biso   1.000  H
  C486     1.0000 0.10660  0.64980  0.71170  Biso   1.000  C
  H263     1.0000 0.11570  0.66020  0.68700  Biso   1.000  H
  C487     1.0000 0.11950  0.66820  0.74800  Biso   1.000  C
  C488     1.0000 0.14500  0.70160  0.74950  Biso   1.000  C
  H264     1.0000 0.15290  0.71320  0.72480  Biso   1.000  H
  C489     1.0000 0.15820  0.71860  0.78390  Biso   1.000  C
  C490     1.0000 0.14400  0.70140  0.82170  Biso   1.000  C
  H265     1.0000 0.15190  0.71350  0.84670  Biso   1.000  H
  C491     1.0000 0.11920  0.67040  0.82210  Biso   1.000  C
  H266     1.0000 0.11080  0.65980  0.84710  Biso   1.000  H
  C492     1.0000 0.10570  0.65190  0.78610  Biso   1.000  C
  C493     1.0000 0.08030  0.61760  0.78510  Biso   1.000  C
  H267     1.0000 0.07130  0.60610  0.81010  Biso   1.000  H
  O81      1.0000 0.03340  0.54840  0.78340  Biso   1.000  O
  O82      1.0000 0.03400  0.54790  0.71520  Biso   1.000  O
  C494     1.0000 0.06130  0.54400  0.75090  Biso   1.000  C
  C495     1.0000 0.10010  0.56960  0.75050  Biso   1.000  C
  C496     1.0000 0.11750  0.58250  0.78730  Biso   1.000  C
  H268     1.0000 0.10650  0.57300  0.81230  Biso   1.000  H
  C497     1.0000 0.14920  0.60660  0.78780  Biso   1.000  C
  H269     1.0000 0.15910  0.61620  0.81250  Biso   1.000  H
  C498     1.0000 0.16830  0.61930  0.75170  Biso   1.000  C
  C499     1.0000 0.20180  0.64540  0.75070  Biso   1.000  C
  H270     1.0000 0.21260  0.65400  0.77540  Biso   1.000  H
  C500     1.0000 0.21790  0.65800  0.71660  Biso   1.000  C
  C501     1.0000 0.20120  0.64340  0.67830  Biso   1.000  C
  H271     1.0000 0.21310  0.65100  0.65300  Biso   1.000  H
  C502     1.0000 0.17030  0.61870  0.67860  Biso   1.000  C
  H272     1.0000 0.15990  0.60990  0.65380  Biso   1.000  H
  C503     1.0000 0.15160  0.60560  0.71360  Biso   1.000  C
  C504     1.0000 0.11760  0.58080  0.71510  Biso   1.000  C
  H273     1.0000 0.10610  0.57190  0.69010  Biso   1.000  H
  O83      1.0000 0.04780  0.53440  0.78440  Biso   1.000  O
  O84      1.0000 0.04830  0.53400  0.71680  Biso   1.000  O
  C505     1.0000 0.68715  0.25366  0.28334  Biso   1.000  C
  C506     1.0000 0.71697  0.25334  0.31268  Biso   1.000  C
  H274     1.0000 0.71690  0.23130  0.33120  Biso   1.000  H
  C507     1.0000 0.54330  0.06110  0.24940  Biso   1.000  C
  C508     1.0000 0.56950  0.10000  0.24950  Biso   1.000  C
  C509     1.0000 0.58140  0.11730  0.21220  Biso   1.000  C
  H275     1.0000 0.57230  0.10580  0.18730  Biso   1.000  H
  C510     1.0000 0.60660  0.14980  0.21170  Biso   1.000  C
  H276     1.0000 0.61570  0.16020  0.18700  Biso   1.000  H
  C511     1.0000 0.61950  0.16820  0.24800  Biso   1.000  C
  C512     1.0000 0.64500  0.20160  0.24950  Biso   1.000  C
  H277     1.0000 0.65290  0.21320  0.22480  Biso   1.000  H
  C513     1.0000 0.65820  0.21860  0.28390  Biso   1.000  C
  C514     1.0000 0.64400  0.20140  0.32170  Biso   1.000  C
  H278     1.0000 0.65190  0.21350  0.34670  Biso   1.000  H
  C515     1.0000 0.61920  0.17040  0.32210  Biso   1.000  C
  H279     1.0000 0.61080  0.15980  0.34710  Biso   1.000  H
  C516     1.0000 0.60570  0.15190  0.28610  Biso   1.000  C
  C517     1.0000 0.58030  0.11760  0.28510  Biso   1.000  C
  H280     1.0000 0.57130  0.10610  0.31010  Biso   1.000  H
  O85      1.0000 0.53340  0.04840  0.28340  Biso   1.000  O
  O86      1.0000 0.53400  0.04790  0.21520  Biso   1.000  O
  C518     1.0000 0.56130  0.04400  0.25090  Biso   1.000  C
  C519     1.0000 0.60010  0.06960  0.25050  Biso   1.000  C
  C520     1.0000 0.61750  0.08250  0.28730  Biso   1.000  C
  H281     1.0000 0.60650  0.07300  0.31230  Biso   1.000  H
  C521     1.0000 0.64920  0.10660  0.28780  Biso   1.000  C
  H282     1.0000 0.65910  0.11620  0.31250  Biso   1.000  H
  C522     1.0000 0.66830  0.11930  0.25170  Biso   1.000  C
  C523     1.0000 0.70180  0.14540  0.25070  Biso   1.000  C
  H283     1.0000 0.71260  0.15400  0.27540  Biso   1.000  H
  C524     1.0000 0.71790  0.15800  0.21660  Biso   1.000  C
  C525     1.0000 0.70120  0.14340  0.17830  Biso   1.000  C
  H284     1.0000 0.71310  0.15100  0.15300  Biso   1.000  H
  C526     1.0000 0.67030  0.11870  0.17860  Biso   1.000  C
  H285     1.0000 0.65990  0.10990  0.15380  Biso   1.000  H
  C527     1.0000 0.65160  0.10560  0.21360  Biso   1.000  C
  C528     1.0000 0.61760  0.08080  0.21510  Biso   1.000  C
  H286     1.0000 0.60610  0.07190  0.19010  Biso   1.000  H
  O87      1.0000 0.54780  0.03440  0.28440  Biso   1.000  O
  O88      1.0000 0.54830  0.03400  0.21680  Biso   1.000  O
  C529     1.0000 0.81285  0.75366  0.21666  Biso   1.000  C
  C530     1.0000 0.78303  0.75334  0.18732  Biso   1.000  C
  H287     1.0000 0.78310  0.73130  0.16880  Biso   1.000  H
  C531     1.0000 0.95670  0.56110  0.25060  Biso   1.000  C
  C532     1.0000 0.93050  0.60000  0.25050  Biso   1.000  C
  C533     1.0000 0.91860  0.61730  0.28780  Biso   1.000  C
  H288     1.0000 0.92770  0.60580  0.31270  Biso   1.000  H
  C534     1.0000 0.89340  0.64980  0.28830  Biso   1.000  C
  H289     1.0000 0.88430  0.66020  0.31300  Biso   1.000  H
  C535     1.0000 0.88050  0.66820  0.25200  Biso   1.000  C
  C536     1.0000 0.85500  0.70160  0.25050  Biso   1.000  C
  H290     1.0000 0.84710  0.71320  0.27520  Biso   1.000  H
  C537     1.0000 0.84180  0.71860  0.21610  Biso   1.000  C
  C538     1.0000 0.85600  0.70140  0.17830  Biso   1.000  C
  H291     1.0000 0.84810  0.71350  0.15330  Biso   1.000  H
  C539     1.0000 0.88080  0.67040  0.17790  Biso   1.000  C
  H292     1.0000 0.88920  0.65980  0.15290  Biso   1.000  H
  C540     1.0000 0.89430  0.65190  0.21390  Biso   1.000  C
  C541     1.0000 0.91970  0.61760  0.21490  Biso   1.000  C
  H293     1.0000 0.92870  0.60610  0.18990  Biso   1.000  H
  O89      1.0000 0.96660  0.54840  0.21660  Biso   1.000  O
  O90      1.0000 0.96600  0.54790  0.28480  Biso   1.000  O
  C542     1.0000 0.93870  0.54400  0.24910  Biso   1.000  C
  C543     1.0000 0.89990  0.56960  0.24950  Biso   1.000  C
  C544     1.0000 0.88250  0.58250  0.21270  Biso   1.000  C
  H294     1.0000 0.89350  0.57300  0.18770  Biso   1.000  H
  C545     1.0000 0.85080  0.60660  0.21220  Biso   1.000  C
  H295     1.0000 0.84090  0.61620  0.18750  Biso   1.000  H
  C546     1.0000 0.83170  0.61930  0.24830  Biso   1.000  C
  C547     1.0000 0.79820  0.64540  0.24930  Biso   1.000  C
  H296     1.0000 0.78740  0.65400  0.22460  Biso   1.000  H
  C548     1.0000 0.78210  0.65800  0.28340  Biso   1.000  C
  C549     1.0000 0.79880  0.64340  0.32170  Biso   1.000  C
  H297     1.0000 0.78690  0.65100  0.34700  Biso   1.000  H
  C550     1.0000 0.82970  0.61870  0.32140  Biso   1.000  C
  H298     1.0000 0.84010  0.60990  0.34620  Biso   1.000  H
  C551     1.0000 0.84840  0.60560  0.28640  Biso   1.000  C
  C552     1.0000 0.88240  0.58080  0.28490  Biso   1.000  C
  H299     1.0000 0.89390  0.57190  0.30990  Biso   1.000  H
  O91      1.0000 0.95220  0.53440  0.21560  Biso   1.000  O
  O92      1.0000 0.95170  0.53400  0.28320  Biso   1.000  O
  C553     1.0000 0.31285  0.25366  0.71666  Biso   1.000  C
  C554     1.0000 0.28303  0.25334  0.68732  Biso   1.000  C
  H300     1.0000 0.28310  0.23130  0.66880  Biso   1.000  H
  C555     1.0000 0.45670  0.06110  0.75060  Biso   1.000  C
  C556     1.0000 0.43050  0.10000  0.75050  Biso   1.000  C
  C557     1.0000 0.41860  0.11730  0.78780  Biso   1.000  C
  H301     1.0000 0.42770  0.10580  0.81270  Biso   1.000  H
  C558     1.0000 0.39340  0.14980  0.78830  Biso   1.000  C
  H302     1.0000 0.38430  0.16020  0.81300  Biso   1.000  H
  C559     1.0000 0.38050  0.16820  0.75200  Biso   1.000  C
  C560     1.0000 0.35500  0.20160  0.75050  Biso   1.000  C
  H303     1.0000 0.34710  0.21320  0.77520  Biso   1.000  H
  C561     1.0000 0.34180  0.21860  0.71610  Biso   1.000  C
  C562     1.0000 0.35600  0.20140  0.67830  Biso   1.000  C
  H304     1.0000 0.34810  0.21350  0.65330  Biso   1.000  H
  C563     1.0000 0.38080  0.17040  0.67790  Biso   1.000  C
  H305     1.0000 0.38920  0.15980  0.65290  Biso   1.000  H
  C564     1.0000 0.39430  0.15190  0.71390  Biso   1.000  C
  C565     1.0000 0.41970  0.11760  0.71490  Biso   1.000  C
  H306     1.0000 0.42870  0.10610  0.68990  Biso   1.000  H
  O93      1.0000 0.46660  0.04840  0.71660  Biso   1.000  O
  O94      1.0000 0.46600  0.04790  0.78480  Biso   1.000  O
  C566     1.0000 0.43870  0.04400  0.74910  Biso   1.000  C
  C567     1.0000 0.39990  0.06960  0.74950  Biso   1.000  C
  C568     1.0000 0.38250  0.08250  0.71270  Biso   1.000  C
  H307     1.0000 0.39350  0.07300  0.68770  Biso   1.000  H
  C569     1.0000 0.35080  0.10660  0.71220  Biso   1.000  C
  H308     1.0000 0.34090  0.11620  0.68750  Biso   1.000  H
  C570     1.0000 0.33170  0.11930  0.74830  Biso   1.000  C
  C571     1.0000 0.29820  0.14540  0.74930  Biso   1.000  C
  H309     1.0000 0.28740  0.15400  0.72460  Biso   1.000  H
  C572     1.0000 0.28210  0.15800  0.78340  Biso   1.000  C
  C573     1.0000 0.29880  0.14340  0.82170  Biso   1.000  C
  H310     1.0000 0.28690  0.15100  0.84700  Biso   1.000  H
  C574     1.0000 0.32970  0.11870  0.82140  Biso   1.000  C
  H311     1.0000 0.34010  0.10990  0.84620  Biso   1.000  H
  C575     1.0000 0.34840  0.10560  0.78640  Biso   1.000  C
  C576     1.0000 0.38240  0.08080  0.78490  Biso   1.000  C
  H312     1.0000 0.39390  0.07190  0.80990  Biso   1.000  H
  O95      1.0000 0.45220  0.03440  0.71560  Biso   1.000  O
  O96      1.0000 0.45170  0.03400  0.78320  Biso   1.000  O
  C577     1.0000 0.78334  0.81285  0.75366  Biso   1.000  C
  C578     1.0000 0.81268  0.78303  0.75334  Biso   1.000  C
  H313     1.0000 0.83120  0.78310  0.73130  Biso   1.000  H
  C579     1.0000 0.74940  0.95670  0.56110  Biso   1.000  C
  C580     1.0000 0.74950  0.93050  0.60000  Biso   1.000  C
  C581     1.0000 0.71220  0.91860  0.61730  Biso   1.000  C
  H314     1.0000 0.68730  0.92770  0.60580  Biso   1.000  H
  C582     1.0000 0.71170  0.89340  0.64980  Biso   1.000  C
  H315     1.0000 0.68700  0.88430  0.66020  Biso   1.000  H
  C583     1.0000 0.74800  0.88050  0.66820  Biso   1.000  C
  C584     1.0000 0.74950  0.85500  0.70160  Biso   1.000  C
  H316     1.0000 0.72480  0.84710  0.71320  Biso   1.000  H
  C585     1.0000 0.78390  0.84180  0.71860  Biso   1.000  C
  C586     1.0000 0.82170  0.85600  0.70140  Biso   1.000  C
  H317     1.0000 0.84670  0.84810  0.71350  Biso   1.000  H
  C587     1.0000 0.82210  0.88080  0.67040  Biso   1.000  C
  H318     1.0000 0.84710  0.88920  0.65980  Biso   1.000  H
  C588     1.0000 0.78610  0.89430  0.65190  Biso   1.000  C
  C589     1.0000 0.78510  0.91970  0.61760  Biso   1.000  C
  H319     1.0000 0.81010  0.92870  0.60610  Biso   1.000  H
  O97      1.0000 0.78340  0.96660  0.54840  Biso   1.000  O
  O98      1.0000 0.71520  0.96600  0.54790  Biso   1.000  O
  C590     1.0000 0.75090  0.93870  0.54400  Biso   1.000  C
  C591     1.0000 0.75050  0.89990  0.56960  Biso   1.000  C
  C592     1.0000 0.78730  0.88250  0.58250  Biso   1.000  C
  H320     1.0000 0.81230  0.89350  0.57300  Biso   1.000  H
  C593     1.0000 0.78780  0.85080  0.60660  Biso   1.000  C
  H321     1.0000 0.81250  0.84090  0.61620  Biso   1.000  H
  C594     1.0000 0.75170  0.83170  0.61930  Biso   1.000  C
  C595     1.0000 0.75070  0.79820  0.64540  Biso   1.000  C
  H322     1.0000 0.77540  0.78740  0.65400  Biso   1.000  H
  C596     1.0000 0.71660  0.78210  0.65800  Biso   1.000  C
  C597     1.0000 0.67830  0.79880  0.64340  Biso   1.000  C
  H323     1.0000 0.65300  0.78690  0.65100  Biso   1.000  H
  C598     1.0000 0.67860  0.82970  0.61870  Biso   1.000  C
  H324     1.0000 0.65380  0.84010  0.60990  Biso   1.000  H
  C599     1.0000 0.71360  0.84840  0.60560  Biso   1.000  C
  C600     1.0000 0.71510  0.88240  0.58080  Biso   1.000  C
  H325     1.0000 0.69010  0.89390  0.57190  Biso   1.000  H
  O99      1.0000 0.78440  0.95220  0.53440  Biso   1.000  O
  O100     1.0000 0.71680  0.95170  0.53400  Biso   1.000  O
  C601     1.0000 0.28334  0.31285  0.25366  Biso   1.000  C
  C602     1.0000 0.31268  0.28303  0.25334  Biso   1.000  C
  H326     1.0000 0.33120  0.28310  0.23130  Biso   1.000  H
  C603     1.0000 0.24940  0.45670  0.06110  Biso   1.000  C
  C604     1.0000 0.24950  0.43050  0.10000  Biso   1.000  C
  C605     1.0000 0.21220  0.41860  0.11730  Biso   1.000  C
  H327     1.0000 0.18730  0.42770  0.10580  Biso   1.000  H
  C606     1.0000 0.21170  0.39340  0.14980  Biso   1.000  C
  H328     1.0000 0.18700  0.38430  0.16020  Biso   1.000  H
  C607     1.0000 0.24800  0.38050  0.16820  Biso   1.000  C
  C608     1.0000 0.24950  0.35500  0.20160  Biso   1.000  C
  H329     1.0000 0.22480  0.34710  0.21320  Biso   1.000  H
  C609     1.0000 0.28390  0.34180  0.21860  Biso   1.000  C
  C610     1.0000 0.32170  0.35600  0.20140  Biso   1.000  C
  H330     1.0000 0.34670  0.34810  0.21350  Biso   1.000  H
  C611     1.0000 0.32210  0.38080  0.17040  Biso   1.000  C
  H331     1.0000 0.34710  0.38920  0.15980  Biso   1.000  H
  C612     1.0000 0.28610  0.39430  0.15190  Biso   1.000  C
  C613     1.0000 0.28510  0.41970  0.11760  Biso   1.000  C
  H332     1.0000 0.31010  0.42870  0.10610  Biso   1.000  H
  O101     1.0000 0.28340  0.46660  0.04840  Biso   1.000  O
  O102     1.0000 0.21520  0.46600  0.04790  Biso   1.000  O
  C614     1.0000 0.25090  0.43870  0.04400  Biso   1.000  C
  C615     1.0000 0.25050  0.39990  0.06960  Biso   1.000  C
  C616     1.0000 0.28730  0.38250  0.08250  Biso   1.000  C
  H333     1.0000 0.31230  0.39350  0.07300  Biso   1.000  H
  C617     1.0000 0.28780  0.35080  0.10660  Biso   1.000  C
  H334     1.0000 0.31250  0.34090  0.11620  Biso   1.000  H
  C618     1.0000 0.25170  0.33170  0.11930  Biso   1.000  C
  C619     1.0000 0.25070  0.29820  0.14540  Biso   1.000  C
  H335     1.0000 0.27540  0.28740  0.15400  Biso   1.000  H
  C620     1.0000 0.21660  0.28210  0.15800  Biso   1.000  C
  C621     1.0000 0.17830  0.29880  0.14340  Biso   1.000  C
  H336     1.0000 0.15300  0.28690  0.15100  Biso   1.000  H
  C622     1.0000 0.17860  0.32970  0.11870  Biso   1.000  C
  H337     1.0000 0.15380  0.34010  0.10990  Biso   1.000  H
  C623     1.0000 0.21360  0.34840  0.10560  Biso   1.000  C
  C624     1.0000 0.21510  0.38240  0.08080  Biso   1.000  C
  H338     1.0000 0.19010  0.39390  0.07190  Biso   1.000  H
  O103     1.0000 0.28440  0.45220  0.03440  Biso   1.000  O
  O104     1.0000 0.21680  0.45170  0.03400  Biso   1.000  O
  C625     1.0000 0.21666  0.18715  0.75366  Biso   1.000  C
  C626     1.0000 0.18732  0.21697  0.75334  Biso   1.000  C
  H339     1.0000 0.16880  0.21690  0.73130  Biso   1.000  H
  C627     1.0000 0.25060  0.04330  0.56110  Biso   1.000  C
  C628     1.0000 0.25050  0.06950  0.60000  Biso   1.000  C
  C629     1.0000 0.28780  0.08140  0.61730  Biso   1.000  C
  H340     1.0000 0.31270  0.07230  0.60580  Biso   1.000  H
  C630     1.0000 0.28830  0.10660  0.64980  Biso   1.000  C
  H341     1.0000 0.31300  0.11570  0.66020  Biso   1.000  H
  C631     1.0000 0.25200  0.11950  0.66820  Biso   1.000  C
  C632     1.0000 0.25050  0.14500  0.70160  Biso   1.000  C
  H342     1.0000 0.27520  0.15290  0.71320  Biso   1.000  H
  C633     1.0000 0.21610  0.15820  0.71860  Biso   1.000  C
  C634     1.0000 0.17830  0.14400  0.70140  Biso   1.000  C
  H343     1.0000 0.15330  0.15190  0.71350  Biso   1.000  H
  C635     1.0000 0.17790  0.11920  0.67040  Biso   1.000  C
  H344     1.0000 0.15290  0.11080  0.65980  Biso   1.000  H
  C636     1.0000 0.21390  0.10570  0.65190  Biso   1.000  C
  C637     1.0000 0.21490  0.08030  0.61760  Biso   1.000  C
  H345     1.0000 0.18990  0.07130  0.60610  Biso   1.000  H
  O105     1.0000 0.21660  0.03340  0.54840  Biso   1.000  O
  O106     1.0000 0.28480  0.03400  0.54790  Biso   1.000  O
  C638     1.0000 0.24910  0.06130  0.54400  Biso   1.000  C
  C639     1.0000 0.24950  0.10010  0.56960  Biso   1.000  C
  C640     1.0000 0.21270  0.11750  0.58250  Biso   1.000  C
  H346     1.0000 0.18770  0.10650  0.57300  Biso   1.000  H
  C641     1.0000 0.21220  0.14920  0.60660  Biso   1.000  C
  H347     1.0000 0.18750  0.15910  0.61620  Biso   1.000  H
  C642     1.0000 0.24830  0.16830  0.61930  Biso   1.000  C
  C643     1.0000 0.24930  0.20180  0.64540  Biso   1.000  C
  H348     1.0000 0.22460  0.21260  0.65400  Biso   1.000  H
  C644     1.0000 0.28340  0.21790  0.65800  Biso   1.000  C
  C645     1.0000 0.32170  0.20120  0.64340  Biso   1.000  C
  H349     1.0000 0.34700  0.21310  0.65100  Biso   1.000  H
  C646     1.0000 0.32140  0.17030  0.61870  Biso   1.000  C
  H350     1.0000 0.34620  0.15990  0.60990  Biso   1.000  H
  C647     1.0000 0.28640  0.15160  0.60560  Biso   1.000  C
  C648     1.0000 0.28490  0.11760  0.58080  Biso   1.000  C
  H351     1.0000 0.30990  0.10610  0.57190  Biso   1.000  H
  O107     1.0000 0.21560  0.04780  0.53440  Biso   1.000  O
  O108     1.0000 0.28320  0.04830  0.53400  Biso   1.000  O
  C649     1.0000 0.71666  0.68715  0.25366  Biso   1.000  C
  C650     1.0000 0.68732  0.71697  0.25334  Biso   1.000  C
  H352     1.0000 0.66880  0.71690  0.23130  Biso   1.000  H
  C651     1.0000 0.75060  0.54330  0.06110  Biso   1.000  C
  C652     1.0000 0.75050  0.56950  0.10000  Biso   1.000  C
  C653     1.0000 0.78780  0.58140  0.11730  Biso   1.000  C
  H353     1.0000 0.81270  0.57230  0.10580  Biso   1.000  H
  C654     1.0000 0.78830  0.60660  0.14980  Biso   1.000  C
  H354     1.0000 0.81300  0.61570  0.16020  Biso   1.000  H
  C655     1.0000 0.75200  0.61950  0.16820  Biso   1.000  C
  C656     1.0000 0.75050  0.64500  0.20160  Biso   1.000  C
  H355     1.0000 0.77520  0.65290  0.21320  Biso   1.000  H
  C657     1.0000 0.71610  0.65820  0.21860  Biso   1.000  C
  C658     1.0000 0.67830  0.64400  0.20140  Biso   1.000  C
  H356     1.0000 0.65330  0.65190  0.21350  Biso   1.000  H
  C659     1.0000 0.67790  0.61920  0.17040  Biso   1.000  C
  H357     1.0000 0.65290  0.61080  0.15980  Biso   1.000  H
  C660     1.0000 0.71390  0.60570  0.15190  Biso   1.000  C
  C661     1.0000 0.71490  0.58030  0.11760  Biso   1.000  C
  H358     1.0000 0.68990  0.57130  0.10610  Biso   1.000  H
  O109     1.0000 0.71660  0.53340  0.04840  Biso   1.000  O
  O110     1.0000 0.78480  0.53400  0.04790  Biso   1.000  O
  C662     1.0000 0.74910  0.56130  0.04400  Biso   1.000  C
  C663     1.0000 0.74950  0.60010  0.06960  Biso   1.000  C
  C664     1.0000 0.71270  0.61750  0.08250  Biso   1.000  C
  H359     1.0000 0.68770  0.60650  0.07300  Biso   1.000  H
  C665     1.0000 0.71220  0.64920  0.10660  Biso   1.000  C
  H360     1.0000 0.68750  0.65910  0.11620  Biso   1.000  H
  C666     1.0000 0.74830  0.66830  0.11930  Biso   1.000  C
  C667     1.0000 0.74930  0.70180  0.14540  Biso   1.000  C
  H361     1.0000 0.72460  0.71260  0.15400  Biso   1.000  H
  C668     1.0000 0.78340  0.71790  0.15800  Biso   1.000  C
  C669     1.0000 0.82170  0.70120  0.14340  Biso   1.000  C
  H362     1.0000 0.84700  0.71310  0.15100  Biso   1.000  H
  C670     1.0000 0.82140  0.67030  0.11870  Biso   1.000  C
  H363     1.0000 0.84620  0.65990  0.10990  Biso   1.000  H
  C671     1.0000 0.78640  0.65160  0.10560  Biso   1.000  C
  C672     1.0000 0.78490  0.61760  0.08080  Biso   1.000  C
  H364     1.0000 0.80990  0.60610  0.07190  Biso   1.000  H
  O111     1.0000 0.71560  0.54780  0.03440  Biso   1.000  O
  O112     1.0000 0.78320  0.54830  0.03400  Biso   1.000  O
  C673     1.0000 0.21666  0.81285  0.24634  Biso   1.000  C
  C674     1.0000 0.18732  0.78303  0.24666  Biso   1.000  C
  H365     1.0000 0.16880  0.78310  0.26870  Biso   1.000  H
  C675     1.0000 0.25060  0.95670  0.43890  Biso   1.000  C
  C676     1.0000 0.25050  0.93050  0.40000  Biso   1.000  C
  C677     1.0000 0.28780  0.91860  0.38270  Biso   1.000  C
  H366     1.0000 0.31270  0.92770  0.39420  Biso   1.000  H
  C678     1.0000 0.28830  0.89340  0.35020  Biso   1.000  C
  H367     1.0000 0.31300  0.88430  0.33980  Biso   1.000  H
  C679     1.0000 0.25200  0.88050  0.33180  Biso   1.000  C
  C680     1.0000 0.25050  0.85500  0.29840  Biso   1.000  C
  H368     1.0000 0.27520  0.84710  0.28680  Biso   1.000  H
  C681     1.0000 0.21610  0.84180  0.28140  Biso   1.000  C
  C682     1.0000 0.17830  0.85600  0.29860  Biso   1.000  C
  H369     1.0000 0.15330  0.84810  0.28650  Biso   1.000  H
  C683     1.0000 0.17790  0.88080  0.32960  Biso   1.000  C
  H370     1.0000 0.15290  0.88920  0.34020  Biso   1.000  H
  C684     1.0000 0.21390  0.89430  0.34810  Biso   1.000  C
  C685     1.0000 0.21490  0.91970  0.38240  Biso   1.000  C
  H371     1.0000 0.18990  0.92870  0.39390  Biso   1.000  H
  O113     1.0000 0.21660  0.96660  0.45160  Biso   1.000  O
  O114     1.0000 0.28480  0.96600  0.45210  Biso   1.000  O
  C686     1.0000 0.24910  0.93870  0.45600  Biso   1.000  C
  C687     1.0000 0.24950  0.89990  0.43040  Biso   1.000  C
  C688     1.0000 0.21270  0.88250  0.41750  Biso   1.000  C
  H372     1.0000 0.18770  0.89350  0.42700  Biso   1.000  H
  C689     1.0000 0.21220  0.85080  0.39340  Biso   1.000  C
  H373     1.0000 0.18750  0.84090  0.38380  Biso   1.000  H
  C690     1.0000 0.24830  0.83170  0.38070  Biso   1.000  C
  C691     1.0000 0.24930  0.79820  0.35460  Biso   1.000  C
  H374     1.0000 0.22460  0.78740  0.34600  Biso   1.000  H
  C692     1.0000 0.28340  0.78210  0.34200  Biso   1.000  C
  C693     1.0000 0.32170  0.79880  0.35660  Biso   1.000  C
  H375     1.0000 0.34700  0.78690  0.34900  Biso   1.000  H
  C694     1.0000 0.32140  0.82970  0.38130  Biso   1.000  C
  H376     1.0000 0.34620  0.84010  0.39010  Biso   1.000  H
  C695     1.0000 0.28640  0.84840  0.39440  Biso   1.000  C
  C696     1.0000 0.28490  0.88240  0.41920  Biso   1.000  C
  H377     1.0000 0.30990  0.89390  0.42810  Biso   1.000  H
  O115     1.0000 0.21560  0.95220  0.46560  Biso   1.000  O
  O116     1.0000 0.28320  0.95170  0.46600  Biso   1.000  O
  C697     1.0000 0.71666  0.31285  0.74634  Biso   1.000  C
  C698     1.0000 0.68732  0.28303  0.74666  Biso   1.000  C
  H378     1.0000 0.66880  0.28310  0.76870  Biso   1.000  H
  C699     1.0000 0.75060  0.45670  0.93890  Biso   1.000  C
  C700     1.0000 0.75050  0.43050  0.90000  Biso   1.000  C
  C701     1.0000 0.78780  0.41860  0.88270  Biso   1.000  C
  H379     1.0000 0.81270  0.42770  0.89420  Biso   1.000  H
  C702     1.0000 0.78830  0.39340  0.85020  Biso   1.000  C
  H380     1.0000 0.81300  0.38430  0.83980  Biso   1.000  H
  C703     1.0000 0.75200  0.38050  0.83180  Biso   1.000  C
  C704     1.0000 0.75050  0.35500  0.79840  Biso   1.000  C
  H381     1.0000 0.77520  0.34710  0.78680  Biso   1.000  H
  C705     1.0000 0.71610  0.34180  0.78140  Biso   1.000  C
  C706     1.0000 0.67830  0.35600  0.79860  Biso   1.000  C
  H382     1.0000 0.65330  0.34810  0.78650  Biso   1.000  H
  C707     1.0000 0.67790  0.38080  0.82960  Biso   1.000  C
  H383     1.0000 0.65290  0.38920  0.84020  Biso   1.000  H
  C708     1.0000 0.71390  0.39430  0.84810  Biso   1.000  C
  C709     1.0000 0.71490  0.41970  0.88240  Biso   1.000  C
  H384     1.0000 0.68990  0.42870  0.89390  Biso   1.000  H
  O117     1.0000 0.71660  0.46660  0.95160  Biso   1.000  O
  O118     1.0000 0.78480  0.46600  0.95210  Biso   1.000  O
  C710     1.0000 0.74910  0.43870  0.95600  Biso   1.000  C
  C711     1.0000 0.74950  0.39990  0.93040  Biso   1.000  C
  C712     1.0000 0.71270  0.38250  0.91750  Biso   1.000  C
  H385     1.0000 0.68770  0.39350  0.92700  Biso   1.000  H
  C713     1.0000 0.71220  0.35080  0.89340  Biso   1.000  C
  H386     1.0000 0.68750  0.34090  0.88380  Biso   1.000  H
  C714     1.0000 0.74830  0.33170  0.88070  Biso   1.000  C
  C715     1.0000 0.74930  0.29820  0.85460  Biso   1.000  C
  H387     1.0000 0.72460  0.28740  0.84600  Biso   1.000  H
  C716     1.0000 0.78340  0.28210  0.84200  Biso   1.000  C
  C717     1.0000 0.82170  0.29880  0.85660  Biso   1.000  C
  H388     1.0000 0.84700  0.28690  0.84900  Biso   1.000  H
  C718     1.0000 0.82140  0.32970  0.88130  Biso   1.000  C
  H389     1.0000 0.84620  0.34010  0.89010  Biso   1.000  H
  C719     1.0000 0.78640  0.34840  0.89440  Biso   1.000  C
  C720     1.0000 0.78490  0.38240  0.91920  Biso   1.000  C
  H390     1.0000 0.80990  0.39390  0.92810  Biso   1.000  H
  O119     1.0000 0.71560  0.45220  0.96560  Biso   1.000  O
  O120     1.0000 0.78320  0.45170  0.96600  Biso   1.000  O
  C721     1.0000 0.78334  0.18715  0.24634  Biso   1.000  C
  C722     1.0000 0.81268  0.21697  0.24666  Biso   1.000  C
  H391     1.0000 0.83120  0.21690  0.26870  Biso   1.000  H
  C723     1.0000 0.74940  0.04330  0.43890  Biso   1.000  C
  C724     1.0000 0.74950  0.06950  0.40000  Biso   1.000  C
  C725     1.0000 0.71220  0.08140  0.38270  Biso   1.000  C
  H392     1.0000 0.68730  0.07230  0.39420  Biso   1.000  H
  C726     1.0000 0.71170  0.10660  0.35020  Biso   1.000  C
  H393     1.0000 0.68700  0.11570  0.33980  Biso   1.000  H
  C727     1.0000 0.74800  0.11950  0.33180  Biso   1.000  C
  C728     1.0000 0.74950  0.14500  0.29840  Biso   1.000  C
  H394     1.0000 0.72480  0.15290  0.28680  Biso   1.000  H
  C729     1.0000 0.78390  0.15820  0.28140  Biso   1.000  C
  C730     1.0000 0.82170  0.14400  0.29860  Biso   1.000  C
  H395     1.0000 0.84670  0.15190  0.28650  Biso   1.000  H
  C731     1.0000 0.82210  0.11920  0.32960  Biso   1.000  C
  H396     1.0000 0.84710  0.11080  0.34020  Biso   1.000  H
  C732     1.0000 0.78610  0.10570  0.34810  Biso   1.000  C
  C733     1.0000 0.78510  0.08030  0.38240  Biso   1.000  C
  H397     1.0000 0.81010  0.07130  0.39390  Biso   1.000  H
  O121     1.0000 0.78340  0.03340  0.45160  Biso   1.000  O
  O122     1.0000 0.71520  0.03400  0.45210  Biso   1.000  O
  C734     1.0000 0.75090  0.06130  0.45600  Biso   1.000  C
  C735     1.0000 0.75050  0.10010  0.43040  Biso   1.000  C
  C736     1.0000 0.78730  0.11750  0.41750  Biso   1.000  C
  H398     1.0000 0.81230  0.10650  0.42700  Biso   1.000  H
  C737     1.0000 0.78780  0.14920  0.39340  Biso   1.000  C
  H399     1.0000 0.81250  0.15910  0.38380  Biso   1.000  H
  C738     1.0000 0.75170  0.16830  0.38070  Biso   1.000  C
  C739     1.0000 0.75070  0.20180  0.35460  Biso   1.000  C
  H400     1.0000 0.77540  0.21260  0.34600  Biso   1.000  H
  C740     1.0000 0.71660  0.21790  0.34200  Biso   1.000  C
  C741     1.0000 0.67830  0.20120  0.35660  Biso   1.000  C
  H401     1.0000 0.65300  0.21310  0.34900  Biso   1.000  H
  C742     1.0000 0.67860  0.17030  0.38130  Biso   1.000  C
  H402     1.0000 0.65380  0.15990  0.39010  Biso   1.000  H
  C743     1.0000 0.71360  0.15160  0.39440  Biso   1.000  C
  C744     1.0000 0.71510  0.11760  0.41920  Biso   1.000  C
  H403     1.0000 0.69010  0.10610  0.42810  Biso   1.000  H
  O123     1.0000 0.78440  0.04780  0.46560  Biso   1.000  O
  O124     1.0000 0.71680  0.04830  0.46600  Biso   1.000  O
  C745     1.0000 0.28334  0.68715  0.74634  Biso   1.000  C
  C746     1.0000 0.31268  0.71697  0.74666  Biso   1.000  C
  H404     1.0000 0.33120  0.71690  0.76870  Biso   1.000  H
  C747     1.0000 0.24940  0.54330  0.93890  Biso   1.000  C
  C748     1.0000 0.24950  0.56950  0.90000  Biso   1.000  C
  C749     1.0000 0.21220  0.58140  0.88270  Biso   1.000  C
  H405     1.0000 0.18730  0.57230  0.89420  Biso   1.000  H
  C750     1.0000 0.21170  0.60660  0.85020  Biso   1.000  C
  H406     1.0000 0.18700  0.61570  0.83980  Biso   1.000  H
  C751     1.0000 0.24800  0.61950  0.83180  Biso   1.000  C
  C752     1.0000 0.24950  0.64500  0.79840  Biso   1.000  C
  H407     1.0000 0.22480  0.65290  0.78680  Biso   1.000  H
  C753     1.0000 0.28390  0.65820  0.78140  Biso   1.000  C
  C754     1.0000 0.32170  0.64400  0.79860  Biso   1.000  C
  H408     1.0000 0.34670  0.65190  0.78650  Biso   1.000  H
  C755     1.0000 0.32210  0.61920  0.82960  Biso   1.000  C
  H409     1.0000 0.34710  0.61080  0.84020  Biso   1.000  H
  C756     1.0000 0.28610  0.60570  0.84810  Biso   1.000  C
  C757     1.0000 0.28510  0.58030  0.88240  Biso   1.000  C
  H410     1.0000 0.31010  0.57130  0.89390  Biso   1.000  H
  O125     1.0000 0.28340  0.53340  0.95160  Biso   1.000  O
  O126     1.0000 0.21520  0.53400  0.95210  Biso   1.000  O
  C758     1.0000 0.25090  0.56130  0.95600  Biso   1.000  C
  C759     1.0000 0.25050  0.60010  0.93040  Biso   1.000  C
  C760     1.0000 0.28730  0.61750  0.91750  Biso   1.000  C
  H411     1.0000 0.31230  0.60650  0.92700  Biso   1.000  H
  C761     1.0000 0.28780  0.64920  0.89340  Biso   1.000  C
  H412     1.0000 0.31250  0.65910  0.88380  Biso   1.000  H
  C762     1.0000 0.25170  0.66830  0.88070  Biso   1.000  C
  C763     1.0000 0.25070  0.70180  0.85460  Biso   1.000  C
  H413     1.0000 0.27540  0.71260  0.84600  Biso   1.000  H
  C764     1.0000 0.21660  0.71790  0.84200  Biso   1.000  C
  C765     1.0000 0.17830  0.70120  0.85660  Biso   1.000  C
  H414     1.0000 0.15300  0.71310  0.84900  Biso   1.000  H
  C766     1.0000 0.17860  0.67030  0.88130  Biso   1.000  C
  H415     1.0000 0.15380  0.65990  0.89010  Biso   1.000  H
  C767     1.0000 0.21360  0.65160  0.89440  Biso   1.000  C
  C768     1.0000 0.21510  0.61760  0.91920  Biso   1.000  C
  H416     1.0000 0.19010  0.60610  0.92810  Biso   1.000  H
  O127     1.0000 0.28440  0.54780  0.96560  Biso   1.000  O
  O128     1.0000 0.21680  0.54830  0.96600  Biso   1.000  O
  C769     1.0000 0.75366  0.78334  0.81285  Biso   1.000  C
  C770     1.0000 0.75334  0.81268  0.78303  Biso   1.000  C
  H417     1.0000 0.73130  0.83120  0.78310  Biso   1.000  H
  C771     1.0000 0.56110  0.74940  0.95670  Biso   1.000  C
  C772     1.0000 0.60000  0.74950  0.93050  Biso   1.000  C
  C773     1.0000 0.61730  0.71220  0.91860  Biso   1.000  C
  H418     1.0000 0.60580  0.68730  0.92770  Biso   1.000  H
  C774     1.0000 0.64980  0.71170  0.89340  Biso   1.000  C
  H419     1.0000 0.66020  0.68700  0.88430  Biso   1.000  H
  C775     1.0000 0.66820  0.74800  0.88050  Biso   1.000  C
  C776     1.0000 0.70160  0.74950  0.85500  Biso   1.000  C
  H420     1.0000 0.71320  0.72480  0.84710  Biso   1.000  H
  C777     1.0000 0.71860  0.78390  0.84180  Biso   1.000  C
  C778     1.0000 0.70140  0.82170  0.85600  Biso   1.000  C
  H421     1.0000 0.71350  0.84670  0.84810  Biso   1.000  H
  C779     1.0000 0.67040  0.82210  0.88080  Biso   1.000  C
  H422     1.0000 0.65980  0.84710  0.88920  Biso   1.000  H
  C780     1.0000 0.65190  0.78610  0.89430  Biso   1.000  C
  C781     1.0000 0.61760  0.78510  0.91970  Biso   1.000  C
  H423     1.0000 0.60610  0.81010  0.92870  Biso   1.000  H
  O129     1.0000 0.54840  0.78340  0.96660  Biso   1.000  O
  O130     1.0000 0.54790  0.71520  0.96600  Biso   1.000  O
  C782     1.0000 0.54400  0.75090  0.93870  Biso   1.000  C
  C783     1.0000 0.56960  0.75050  0.89990  Biso   1.000  C
  C784     1.0000 0.58250  0.78730  0.88250  Biso   1.000  C
  H424     1.0000 0.57300  0.81230  0.89350  Biso   1.000  H
  C785     1.0000 0.60660  0.78780  0.85080  Biso   1.000  C
  H425     1.0000 0.61620  0.81250  0.84090  Biso   1.000  H
  C786     1.0000 0.61930  0.75170  0.83170  Biso   1.000  C
  C787     1.0000 0.64540  0.75070  0.79820  Biso   1.000  C
  H426     1.0000 0.65400  0.77540  0.78740  Biso   1.000  H
  C788     1.0000 0.65800  0.71660  0.78210  Biso   1.000  C
  C789     1.0000 0.64340  0.67830  0.79880  Biso   1.000  C
  H427     1.0000 0.65100  0.65300  0.78690  Biso   1.000  H
  C790     1.0000 0.61870  0.67860  0.82970  Biso   1.000  C
  H428     1.0000 0.60990  0.65380  0.84010  Biso   1.000  H
  C791     1.0000 0.60560  0.71360  0.84840  Biso   1.000  C
  C792     1.0000 0.58080  0.71510  0.88240  Biso   1.000  C
  H429     1.0000 0.57190  0.69010  0.89390  Biso   1.000  H
  O131     1.0000 0.53440  0.78440  0.95220  Biso   1.000  O
  O132     1.0000 0.53400  0.71680  0.95170  Biso   1.000  O
  C793     1.0000 0.25366  0.28334  0.31285  Biso   1.000  C
  C794     1.0000 0.25334  0.31268  0.28303  Biso   1.000  C
  H430     1.0000 0.23130  0.33120  0.28310  Biso   1.000  H
  C795     1.0000 0.06110  0.24940  0.45670  Biso   1.000  C
  C796     1.0000 0.10000  0.24950  0.43050  Biso   1.000  C
  C797     1.0000 0.11730  0.21220  0.41860  Biso   1.000  C
  H431     1.0000 0.10580  0.18730  0.42770  Biso   1.000  H
  C798     1.0000 0.14980  0.21170  0.39340  Biso   1.000  C
  H432     1.0000 0.16020  0.18700  0.38430  Biso   1.000  H
  C799     1.0000 0.16820  0.24800  0.38050  Biso   1.000  C
  C800     1.0000 0.20160  0.24950  0.35500  Biso   1.000  C
  H433     1.0000 0.21320  0.22480  0.34710  Biso   1.000  H
  C801     1.0000 0.21860  0.28390  0.34180  Biso   1.000  C
  C802     1.0000 0.20140  0.32170  0.35600  Biso   1.000  C
  H434     1.0000 0.21350  0.34670  0.34810  Biso   1.000  H
  C803     1.0000 0.17040  0.32210  0.38080  Biso   1.000  C
  H435     1.0000 0.15980  0.34710  0.38920  Biso   1.000  H
  C804     1.0000 0.15190  0.28610  0.39430  Biso   1.000  C
  C805     1.0000 0.11760  0.28510  0.41970  Biso   1.000  C
  H436     1.0000 0.10610  0.31010  0.42870  Biso   1.000  H
  O133     1.0000 0.04840  0.28340  0.46660  Biso   1.000  O
  O134     1.0000 0.04790  0.21520  0.46600  Biso   1.000  O
  C806     1.0000 0.04400  0.25090  0.43870  Biso   1.000  C
  C807     1.0000 0.06960  0.25050  0.39990  Biso   1.000  C
  C808     1.0000 0.08250  0.28730  0.38250  Biso   1.000  C
  H437     1.0000 0.07300  0.31230  0.39350  Biso   1.000  H
  C809     1.0000 0.10660  0.28780  0.35080  Biso   1.000  C
  H438     1.0000 0.11620  0.31250  0.34090  Biso   1.000  H
  C810     1.0000 0.11930  0.25170  0.33170  Biso   1.000  C
  C811     1.0000 0.14540  0.25070  0.29820  Biso   1.000  C
  H439     1.0000 0.15400  0.27540  0.28740  Biso   1.000  H
  C812     1.0000 0.15800  0.21660  0.28210  Biso   1.000  C
  C813     1.0000 0.14340  0.17830  0.29880  Biso   1.000  C
  H440     1.0000 0.15100  0.15300  0.28690  Biso   1.000  H
  C814     1.0000 0.11870  0.17860  0.32970  Biso   1.000  C
  H441     1.0000 0.10990  0.15380  0.34010  Biso   1.000  H
  C815     1.0000 0.10560  0.21360  0.34840  Biso   1.000  C
  C816     1.0000 0.08080  0.21510  0.38240  Biso   1.000  C
  H442     1.0000 0.07190  0.19010  0.39390  Biso   1.000  H
  O135     1.0000 0.03440  0.28440  0.45220  Biso   1.000  O
  O136     1.0000 0.03400  0.21680  0.45170  Biso   1.000  O
  C817     1.0000 0.75366  0.21666  0.18715  Biso   1.000  C
  C818     1.0000 0.75334  0.18732  0.21697  Biso   1.000  C
  H443     1.0000 0.73130  0.16880  0.21690  Biso   1.000  H
  C819     1.0000 0.56110  0.25060  0.04330  Biso   1.000  C
  C820     1.0000 0.60000  0.25050  0.06950  Biso   1.000  C
  C821     1.0000 0.61730  0.28780  0.08140  Biso   1.000  C
  H444     1.0000 0.60580  0.31270  0.07230  Biso   1.000  H
  C822     1.0000 0.64980  0.28830  0.10660  Biso   1.000  C
  H445     1.0000 0.66020  0.31300  0.11570  Biso   1.000  H
  C823     1.0000 0.66820  0.25200  0.11950  Biso   1.000  C
  C824     1.0000 0.70160  0.25050  0.14500  Biso   1.000  C
  H446     1.0000 0.71320  0.27520  0.15290  Biso   1.000  H
  C825     1.0000 0.71860  0.21610  0.15820  Biso   1.000  C
  C826     1.0000 0.70140  0.17830  0.14400  Biso   1.000  C
  H447     1.0000 0.71350  0.15330  0.15190  Biso   1.000  H
  C827     1.0000 0.67040  0.17790  0.11920  Biso   1.000  C
  H448     1.0000 0.65980  0.15290  0.11080  Biso   1.000  H
  C828     1.0000 0.65190  0.21390  0.10570  Biso   1.000  C
  C829     1.0000 0.61760  0.21490  0.08030  Biso   1.000  C
  H449     1.0000 0.60610  0.18990  0.07130  Biso   1.000  H
  O137     1.0000 0.54840  0.21660  0.03340  Biso   1.000  O
  O138     1.0000 0.54790  0.28480  0.03400  Biso   1.000  O
  C830     1.0000 0.54400  0.24910  0.06130  Biso   1.000  C
  C831     1.0000 0.56960  0.24950  0.10010  Biso   1.000  C
  C832     1.0000 0.58250  0.21270  0.11750  Biso   1.000  C
  H450     1.0000 0.57300  0.18770  0.10650  Biso   1.000  H
  C833     1.0000 0.60660  0.21220  0.14920  Biso   1.000  C
  H451     1.0000 0.61620  0.18750  0.15910  Biso   1.000  H
  C834     1.0000 0.61930  0.24830  0.16830  Biso   1.000  C
  C835     1.0000 0.64540  0.24930  0.20180  Biso   1.000  C
  H452     1.0000 0.65400  0.22460  0.21260  Biso   1.000  H
  C836     1.0000 0.65800  0.28340  0.21790  Biso   1.000  C
  C837     1.0000 0.64340  0.32170  0.20120  Biso   1.000  C
  H453     1.0000 0.65100  0.34700  0.21310  Biso   1.000  H
  C838     1.0000 0.61870  0.32140  0.17030  Biso   1.000  C
  H454     1.0000 0.60990  0.34620  0.15990  Biso   1.000  H
  C839     1.0000 0.60560  0.28640  0.15160  Biso   1.000  C
  C840     1.0000 0.58080  0.28490  0.11760  Biso   1.000  C
  H455     1.0000 0.57190  0.30990  0.10610  Biso   1.000  H
  O139     1.0000 0.53440  0.21560  0.04780  Biso   1.000  O
  O140     1.0000 0.53400  0.28320  0.04830  Biso   1.000  O
  C841     1.0000 0.25366  0.71666  0.68715  Biso   1.000  C
  C842     1.0000 0.25334  0.68732  0.71697  Biso   1.000  C
  H456     1.0000 0.23130  0.66880  0.71690  Biso   1.000  H
  C843     1.0000 0.06110  0.75060  0.54330  Biso   1.000  C
  C844     1.0000 0.10000  0.75050  0.56950  Biso   1.000  C
  C845     1.0000 0.11730  0.78780  0.58140  Biso   1.000  C
  H457     1.0000 0.10580  0.81270  0.57230  Biso   1.000  H
  C846     1.0000 0.14980  0.78830  0.60660  Biso   1.000  C
  H458     1.0000 0.16020  0.81300  0.61570  Biso   1.000  H
  C847     1.0000 0.16820  0.75200  0.61950  Biso   1.000  C
  C848     1.0000 0.20160  0.75050  0.64500  Biso   1.000  C
  H459     1.0000 0.21320  0.77520  0.65290  Biso   1.000  H
  C849     1.0000 0.21860  0.71610  0.65820  Biso   1.000  C
  C850     1.0000 0.20140  0.67830  0.64400  Biso   1.000  C
  H460     1.0000 0.21350  0.65330  0.65190  Biso   1.000  H
  C851     1.0000 0.17040  0.67790  0.61920  Biso   1.000  C
  H461     1.0000 0.15980  0.65290  0.61080  Biso   1.000  H
  C852     1.0000 0.15190  0.71390  0.60570  Biso   1.000  C
  C853     1.0000 0.11760  0.71490  0.58030  Biso   1.000  C
  H462     1.0000 0.10610  0.68990  0.57130  Biso   1.000  H
  O141     1.0000 0.04840  0.71660  0.53340  Biso   1.000  O
  O142     1.0000 0.04790  0.78480  0.53400  Biso   1.000  O
  C854     1.0000 0.04400  0.74910  0.56130  Biso   1.000  C
  C855     1.0000 0.06960  0.74950  0.60010  Biso   1.000  C
  C856     1.0000 0.08250  0.71270  0.61750  Biso   1.000  C
  H463     1.0000 0.07300  0.68770  0.60650  Biso   1.000  H
  C857     1.0000 0.10660  0.71220  0.64920  Biso   1.000  C
  H464     1.0000 0.11620  0.68750  0.65910  Biso   1.000  H
  C858     1.0000 0.11930  0.74830  0.66830  Biso   1.000  C
  C859     1.0000 0.14540  0.74930  0.70180  Biso   1.000  C
  H465     1.0000 0.15400  0.72460  0.71260  Biso   1.000  H
  C860     1.0000 0.15800  0.78340  0.71790  Biso   1.000  C
  C861     1.0000 0.14340  0.82170  0.70120  Biso   1.000  C
  H466     1.0000 0.15100  0.84700  0.71310  Biso   1.000  H
  C862     1.0000 0.11870  0.82140  0.67030  Biso   1.000  C
  H467     1.0000 0.10990  0.84620  0.65990  Biso   1.000  H
  C863     1.0000 0.10560  0.78640  0.65160  Biso   1.000  C
  C864     1.0000 0.08080  0.78490  0.61760  Biso   1.000  C
  H468     1.0000 0.07190  0.80990  0.60610  Biso   1.000  H
  O143     1.0000 0.03440  0.71560  0.54780  Biso   1.000  O
  O144     1.0000 0.03400  0.78320  0.54830  Biso   1.000  O
  C865     1.0000 0.24634  0.21666  0.81285  Biso   1.000  C
  C866     1.0000 0.24666  0.18732  0.78303  Biso   1.000  C
  H469     1.0000 0.26870  0.16880  0.78310  Biso   1.000  H
  C867     1.0000 0.43890  0.25060  0.95670  Biso   1.000  C
  C868     1.0000 0.40000  0.25050  0.93050  Biso   1.000  C
  C869     1.0000 0.38270  0.28780  0.91860  Biso   1.000  C
  H470     1.0000 0.39420  0.31270  0.92770  Biso   1.000  H
  C870     1.0000 0.35020  0.28830  0.89340  Biso   1.000  C
  H471     1.0000 0.33980  0.31300  0.88430  Biso   1.000  H
  C871     1.0000 0.33180  0.25200  0.88050  Biso   1.000  C
  C872     1.0000 0.29840  0.25050  0.85500  Biso   1.000  C
  H472     1.0000 0.28680  0.27520  0.84710  Biso   1.000  H
  C873     1.0000 0.28140  0.21610  0.84180  Biso   1.000  C
  C874     1.0000 0.29860  0.17830  0.85600  Biso   1.000  C
  H473     1.0000 0.28650  0.15330  0.84810  Biso   1.000  H
  C875     1.0000 0.32960  0.17790  0.88080  Biso   1.000  C
  H474     1.0000 0.34020  0.15290  0.88920  Biso   1.000  H
  C876     1.0000 0.34810  0.21390  0.89430  Biso   1.000  C
  C877     1.0000 0.38240  0.21490  0.91970  Biso   1.000  C
  H475     1.0000 0.39390  0.18990  0.92870  Biso   1.000  H
  O145     1.0000 0.45160  0.21660  0.96660  Biso   1.000  O
  O146     1.0000 0.45210  0.28480  0.96600  Biso   1.000  O
  C878     1.0000 0.45600  0.24910  0.93870  Biso   1.000  C
  C879     1.0000 0.43040  0.24950  0.89990  Biso   1.000  C
  C880     1.0000 0.41750  0.21270  0.88250  Biso   1.000  C
  H476     1.0000 0.42700  0.18770  0.89350  Biso   1.000  H
  C881     1.0000 0.39340  0.21220  0.85080  Biso   1.000  C
  H477     1.0000 0.38380  0.18750  0.84090  Biso   1.000  H
  C882     1.0000 0.38070  0.24830  0.83170  Biso   1.000  C
  C883     1.0000 0.35460  0.24930  0.79820  Biso   1.000  C
  H478     1.0000 0.34600  0.22460  0.78740  Biso   1.000  H
  C884     1.0000 0.34200  0.28340  0.78210  Biso   1.000  C
  C885     1.0000 0.35660  0.32170  0.79880  Biso   1.000  C
  H479     1.0000 0.34900  0.34700  0.78690  Biso   1.000  H
  C886     1.0000 0.38130  0.32140  0.82970  Biso   1.000  C
  H480     1.0000 0.39010  0.34620  0.84010  Biso   1.000  H
  C887     1.0000 0.39440  0.28640  0.84840  Biso   1.000  C
  C888     1.0000 0.41920  0.28490  0.88240  Biso   1.000  C
  H481     1.0000 0.42810  0.30990  0.89390  Biso   1.000  H
  O147     1.0000 0.46560  0.21560  0.95220  Biso   1.000  O
  O148     1.0000 0.46600  0.28320  0.95170  Biso   1.000  O
  C889     1.0000 0.74634  0.71666  0.31285  Biso   1.000  C
  C890     1.0000 0.74666  0.68732  0.28303  Biso   1.000  C
  H482     1.0000 0.76870  0.66880  0.28310  Biso   1.000  H
  C891     1.0000 0.93890  0.75060  0.45670  Biso   1.000  C
  C892     1.0000 0.90000  0.75050  0.43050  Biso   1.000  C
  C893     1.0000 0.88270  0.78780  0.41860  Biso   1.000  C
  H483     1.0000 0.89420  0.81270  0.42770  Biso   1.000  H
  C894     1.0000 0.85020  0.78830  0.39340  Biso   1.000  C
  H484     1.0000 0.83980  0.81300  0.38430  Biso   1.000  H
  C895     1.0000 0.83180  0.75200  0.38050  Biso   1.000  C
  C896     1.0000 0.79840  0.75050  0.35500  Biso   1.000  C
  H485     1.0000 0.78680  0.77520  0.34710  Biso   1.000  H
  C897     1.0000 0.78140  0.71610  0.34180  Biso   1.000  C
  C898     1.0000 0.79860  0.67830  0.35600  Biso   1.000  C
  H486     1.0000 0.78650  0.65330  0.34810  Biso   1.000  H
  C899     1.0000 0.82960  0.67790  0.38080  Biso   1.000  C
  H487     1.0000 0.84020  0.65290  0.38920  Biso   1.000  H
  C900     1.0000 0.84810  0.71390  0.39430  Biso   1.000  C
  C901     1.0000 0.88240  0.71490  0.41970  Biso   1.000  C
  H488     1.0000 0.89390  0.68990  0.42870  Biso   1.000  H
  O149     1.0000 0.95160  0.71660  0.46660  Biso   1.000  O
  O150     1.0000 0.95210  0.78480  0.46600  Biso   1.000  O
  C902     1.0000 0.95600  0.74910  0.43870  Biso   1.000  C
  C903     1.0000 0.93040  0.74950  0.39990  Biso   1.000  C
  C904     1.0000 0.91750  0.71270  0.38250  Biso   1.000  C
  H489     1.0000 0.92700  0.68770  0.39350  Biso   1.000  H
  C905     1.0000 0.89340  0.71220  0.35080  Biso   1.000  C
  H490     1.0000 0.88380  0.68750  0.34090  Biso   1.000  H
  C906     1.0000 0.88070  0.74830  0.33170  Biso   1.000  C
  C907     1.0000 0.85460  0.74930  0.29820  Biso   1.000  C
  H491     1.0000 0.84600  0.72460  0.28740  Biso   1.000  H
  C908     1.0000 0.84200  0.78340  0.28210  Biso   1.000  C
  C909     1.0000 0.85660  0.82170  0.29880  Biso   1.000  C
  H492     1.0000 0.84900  0.84700  0.28690  Biso   1.000  H
  C910     1.0000 0.88130  0.82140  0.32970  Biso   1.000  C
  H493     1.0000 0.89010  0.84620  0.34010  Biso   1.000  H
  C911     1.0000 0.89440  0.78640  0.34840  Biso   1.000  C
  C912     1.0000 0.91920  0.78490  0.38240  Biso   1.000  C
  H494     1.0000 0.92810  0.80990  0.39390  Biso   1.000  H
  O151     1.0000 0.96560  0.71560  0.45220  Biso   1.000  O
  O152     1.0000 0.96600  0.78320  0.45170  Biso   1.000  O
  C913     1.0000 0.24634  0.78334  0.18715  Biso   1.000  C
  C914     1.0000 0.24666  0.81268  0.21697  Biso   1.000  C
  H495     1.0000 0.26870  0.83120  0.21690  Biso   1.000  H
  C915     1.0000 0.43890  0.74940  0.04330  Biso   1.000  C
  C916     1.0000 0.40000  0.74950  0.06950  Biso   1.000  C
  C917     1.0000 0.38270  0.71220  0.08140  Biso   1.000  C
  H496     1.0000 0.39420  0.68730  0.07230  Biso   1.000  H
  C918     1.0000 0.35020  0.71170  0.10660  Biso   1.000  C
  H497     1.0000 0.33980  0.68700  0.11570  Biso   1.000  H
  C919     1.0000 0.33180  0.74800  0.11950  Biso   1.000  C
  C920     1.0000 0.29840  0.74950  0.14500  Biso   1.000  C
  H498     1.0000 0.28680  0.72480  0.15290  Biso   1.000  H
  C921     1.0000 0.28140  0.78390  0.15820  Biso   1.000  C
  C922     1.0000 0.29860  0.82170  0.14400  Biso   1.000  C
  H499     1.0000 0.28650  0.84670  0.15190  Biso   1.000  H
  C923     1.0000 0.32960  0.82210  0.11920  Biso   1.000  C
  H500     1.0000 0.34020  0.84710  0.11080  Biso   1.000  H
  C924     1.0000 0.34810  0.78610  0.10570  Biso   1.000  C
  C925     1.0000 0.38240  0.78510  0.08030  Biso   1.000  C
  H501     1.0000 0.39390  0.81010  0.07130  Biso   1.000  H
  O153     1.0000 0.45160  0.78340  0.03340  Biso   1.000  O
  O154     1.0000 0.45210  0.71520  0.03400  Biso   1.000  O
  C926     1.0000 0.45600  0.75090  0.06130  Biso   1.000  C
  C927     1.0000 0.43040  0.75050  0.10010  Biso   1.000  C
  C928     1.0000 0.41750  0.78730  0.11750  Biso   1.000  C
  H502     1.0000 0.42700  0.81230  0.10650  Biso   1.000  H
  C929     1.0000 0.39340  0.78780  0.14920  Biso   1.000  C
  H503     1.0000 0.38380  0.81250  0.15910  Biso   1.000  H
  C930     1.0000 0.38070  0.75170  0.16830  Biso   1.000  C
  C931     1.0000 0.35460  0.75070  0.20180  Biso   1.000  C
  H504     1.0000 0.34600  0.77540  0.21260  Biso   1.000  H
  C932     1.0000 0.34200  0.71660  0.21790  Biso   1.000  C
  C933     1.0000 0.35660  0.67830  0.20120  Biso   1.000  C
  H505     1.0000 0.34900  0.65300  0.21310  Biso   1.000  H
  C934     1.0000 0.38130  0.67860  0.17030  Biso   1.000  C
  H506     1.0000 0.39010  0.65380  0.15990  Biso   1.000  H
  C935     1.0000 0.39440  0.71360  0.15160  Biso   1.000  C
  C936     1.0000 0.41920  0.71510  0.11760  Biso   1.000  C
  H507     1.0000 0.42810  0.69010  0.10610  Biso   1.000  H
  O155     1.0000 0.46560  0.78440  0.04780  Biso   1.000  O
  O156     1.0000 0.46600  0.71680  0.04830  Biso   1.000  O
  C937     1.0000 0.74634  0.28334  0.68715  Biso   1.000  C
  C938     1.0000 0.74666  0.31268  0.71697  Biso   1.000  C
  H508     1.0000 0.76870  0.33120  0.71690  Biso   1.000  H
  C939     1.0000 0.93890  0.24940  0.54330  Biso   1.000  C
  C940     1.0000 0.90000  0.24950  0.56950  Biso   1.000  C
  C941     1.0000 0.88270  0.21220  0.58140  Biso   1.000  C
  H509     1.0000 0.89420  0.18730  0.57230  Biso   1.000  H
  C942     1.0000 0.85020  0.21170  0.60660  Biso   1.000  C
  H510     1.0000 0.83980  0.18700  0.61570  Biso   1.000  H
  C943     1.0000 0.83180  0.24800  0.61950  Biso   1.000  C
  C944     1.0000 0.79840  0.24950  0.64500  Biso   1.000  C
  H511     1.0000 0.78680  0.22480  0.65290  Biso   1.000  H
  C945     1.0000 0.78140  0.28390  0.65820  Biso   1.000  C
  C946     1.0000 0.79860  0.32170  0.64400  Biso   1.000  C
  H512     1.0000 0.78650  0.34670  0.65190  Biso   1.000  H
  C947     1.0000 0.82960  0.32210  0.61920  Biso   1.000  C
  H513     1.0000 0.84020  0.34710  0.61080  Biso   1.000  H
  C948     1.0000 0.84810  0.28610  0.60570  Biso   1.000  C
  C949     1.0000 0.88240  0.28510  0.58030  Biso   1.000  C
  H514     1.0000 0.89390  0.31010  0.57130  Biso   1.000  H
  O157     1.0000 0.95160  0.28340  0.53340  Biso   1.000  O
  O158     1.0000 0.95210  0.21520  0.53400  Biso   1.000  O
  C950     1.0000 0.95600  0.25090  0.56130  Biso   1.000  C
  C951     1.0000 0.93040  0.25050  0.60010  Biso   1.000  C
  C952     1.0000 0.91750  0.28730  0.61750  Biso   1.000  C
  H515     1.0000 0.92700  0.31230  0.60650  Biso   1.000  H
  C953     1.0000 0.89340  0.28780  0.64920  Biso   1.000  C
  H516     1.0000 0.88380  0.31250  0.65910  Biso   1.000  H
  C954     1.0000 0.88070  0.25170  0.66830  Biso   1.000  C
  C955     1.0000 0.85460  0.25070  0.70180  Biso   1.000  C
  H517     1.0000 0.84600  0.27540  0.71260  Biso   1.000  H
  C956     1.0000 0.84200  0.21660  0.71790  Biso   1.000  C
  C957     1.0000 0.85660  0.17830  0.70120  Biso   1.000  C
  H518     1.0000 0.84900  0.15300  0.71310  Biso   1.000  H
  C958     1.0000 0.88130  0.17860  0.67030  Biso   1.000  C
  H519     1.0000 0.89010  0.15380  0.65990  Biso   1.000  H
  C959     1.0000 0.89440  0.21360  0.65160  Biso   1.000  C
  C960     1.0000 0.91920  0.21510  0.61760  Biso   1.000  C
  H520     1.0000 0.92810  0.19010  0.60610  Biso   1.000  H
  O159     1.0000 0.96560  0.28440  0.54780  Biso   1.000  O
  O160     1.0000 0.96600  0.21680  0.54830  Biso   1.000  O
  C961     1.0000 0.81285  0.75366  0.78334  Biso   1.000  C
  C962     1.0000 0.78303  0.75334  0.81268  Biso   1.000  C
  H521     1.0000 0.78310  0.73130  0.83120  Biso   1.000  H
  C963     1.0000 0.95670  0.56110  0.74940  Biso   1.000  C
  C964     1.0000 0.93050  0.60000  0.74950  Biso   1.000  C
  C965     1.0000 0.91860  0.61730  0.71220  Biso   1.000  C
  H522     1.0000 0.92770  0.60580  0.68730  Biso   1.000  H
  C966     1.0000 0.89340  0.64980  0.71170  Biso   1.000  C
  H523     1.0000 0.88430  0.66020  0.68700  Biso   1.000  H
  C967     1.0000 0.88050  0.66820  0.74800  Biso   1.000  C
  C968     1.0000 0.85500  0.70160  0.74950  Biso   1.000  C
  H524     1.0000 0.84710  0.71320  0.72480  Biso   1.000  H
  C969     1.0000 0.84180  0.71860  0.78390  Biso   1.000  C
  C970     1.0000 0.85600  0.70140  0.82170  Biso   1.000  C
  H525     1.0000 0.84810  0.71350  0.84670  Biso   1.000  H
  C971     1.0000 0.88080  0.67040  0.82210  Biso   1.000  C
  H526     1.0000 0.88920  0.65980  0.84710  Biso   1.000  H
  C972     1.0000 0.89430  0.65190  0.78610  Biso   1.000  C
  C973     1.0000 0.91970  0.61760  0.78510  Biso   1.000  C
  H527     1.0000 0.92870  0.60610  0.81010  Biso   1.000  H
  O161     1.0000 0.96660  0.54840  0.78340  Biso   1.000  O
  O162     1.0000 0.96600  0.54790  0.71520  Biso   1.000  O
  C974     1.0000 0.93870  0.54400  0.75090  Biso   1.000  C
  C975     1.0000 0.89990  0.56960  0.75050  Biso   1.000  C
  C976     1.0000 0.88250  0.58250  0.78730  Biso   1.000  C
  H528     1.0000 0.89350  0.57300  0.81230  Biso   1.000  H
  C977     1.0000 0.85080  0.60660  0.78780  Biso   1.000  C
  H529     1.0000 0.84090  0.61620  0.81250  Biso   1.000  H
  C978     1.0000 0.83170  0.61930  0.75170  Biso   1.000  C
  C979     1.0000 0.79820  0.64540  0.75070  Biso   1.000  C
  H530     1.0000 0.78740  0.65400  0.77540  Biso   1.000  H
  C980     1.0000 0.78210  0.65800  0.71660  Biso   1.000  C
  C981     1.0000 0.79880  0.64340  0.67830  Biso   1.000  C
  H531     1.0000 0.78690  0.65100  0.65300  Biso   1.000  H
  C982     1.0000 0.82970  0.61870  0.67860  Biso   1.000  C
  H532     1.0000 0.84010  0.60990  0.65380  Biso   1.000  H
  C983     1.0000 0.84840  0.60560  0.71360  Biso   1.000  C
  C984     1.0000 0.88240  0.58080  0.71510  Biso   1.000  C
  H533     1.0000 0.89390  0.57190  0.69010  Biso   1.000  H
  O163     1.0000 0.95220  0.53440  0.78440  Biso   1.000  O
  O164     1.0000 0.95170  0.53400  0.71680  Biso   1.000  O
  C985     1.0000 0.31285  0.25366  0.28334  Biso   1.000  C
  C986     1.0000 0.28303  0.25334  0.31268  Biso   1.000  C
  H534     1.0000 0.28310  0.23130  0.33120  Biso   1.000  H
  C987     1.0000 0.45670  0.06110  0.24940  Biso   1.000  C
  C988     1.0000 0.43050  0.10000  0.24950  Biso   1.000  C
  C989     1.0000 0.41860  0.11730  0.21220  Biso   1.000  C
  H535     1.0000 0.42770  0.10580  0.18730  Biso   1.000  H
  C990     1.0000 0.39340  0.14980  0.21170  Biso   1.000  C
  H536     1.0000 0.38430  0.16020  0.18700  Biso   1.000  H
  C991     1.0000 0.38050  0.16820  0.24800  Biso   1.000  C
  C992     1.0000 0.35500  0.20160  0.24950  Biso   1.000  C
  H537     1.0000 0.34710  0.21320  0.22480  Biso   1.000  H
  C993     1.0000 0.34180  0.21860  0.28390  Biso   1.000  C
  C994     1.0000 0.35600  0.20140  0.32170  Biso   1.000  C
  H538     1.0000 0.34810  0.21350  0.34670  Biso   1.000  H
  C995     1.0000 0.38080  0.17040  0.32210  Biso   1.000  C
  H539     1.0000 0.38920  0.15980  0.34710  Biso   1.000  H
  C996     1.0000 0.39430  0.15190  0.28610  Biso   1.000  C
  C997     1.0000 0.41970  0.11760  0.28510  Biso   1.000  C
  H540     1.0000 0.42870  0.10610  0.31010  Biso   1.000  H
  O165     1.0000 0.46660  0.04840  0.28340  Biso   1.000  O
  O166     1.0000 0.46600  0.04790  0.21520  Biso   1.000  O
  C998     1.0000 0.43870  0.04400  0.25090  Biso   1.000  C
  C999     1.0000 0.39990  0.06960  0.25050  Biso   1.000  C
  C1000    1.0000 0.38250  0.08250  0.28730  Biso   1.000  C
  H541     1.0000 0.39350  0.07300  0.31230  Biso   1.000  H
  C1001    1.0000 0.35080  0.10660  0.28780  Biso   1.000  C
  H542     1.0000 0.34090  0.11620  0.31250  Biso   1.000  H
  C1002    1.0000 0.33170  0.11930  0.25170  Biso   1.000  C
  C1003    1.0000 0.29820  0.14540  0.25070  Biso   1.000  C
  H543     1.0000 0.28740  0.15400  0.27540  Biso   1.000  H
  C1004    1.0000 0.28210  0.15800  0.21660  Biso   1.000  C
  C1005    1.0000 0.29880  0.14340  0.17830  Biso   1.000  C
  H544     1.0000 0.28690  0.15100  0.15300  Biso   1.000  H
  C1006    1.0000 0.32970  0.11870  0.17860  Biso   1.000  C
  H545     1.0000 0.34010  0.10990  0.15380  Biso   1.000  H
  C1007    1.0000 0.34840  0.10560  0.21360  Biso   1.000  C
  C1008    1.0000 0.38240  0.08080  0.21510  Biso   1.000  C
  H546     1.0000 0.39390  0.07190  0.19010  Biso   1.000  H
  O167     1.0000 0.45220  0.03440  0.28440  Biso   1.000  O
  O168     1.0000 0.45170  0.03400  0.21680  Biso   1.000  O
  C1009    1.0000 0.18715  0.75366  0.21666  Biso   1.000  C
  C1010    1.0000 0.21697  0.75334  0.18732  Biso   1.000  C
  H547     1.0000 0.21690  0.73130  0.16880  Biso   1.000  H
  C1011    1.0000 0.04330  0.56110  0.25060  Biso   1.000  C
  C1012    1.0000 0.06950  0.60000  0.25050  Biso   1.000  C
  C1013    1.0000 0.08140  0.61730  0.28780  Biso   1.000  C
  H548     1.0000 0.07230  0.60580  0.31270  Biso   1.000  H
  C1014    1.0000 0.10660  0.64980  0.28830  Biso   1.000  C
  H549     1.0000 0.11570  0.66020  0.31300  Biso   1.000  H
  C1015    1.0000 0.11950  0.66820  0.25200  Biso   1.000  C
  C1016    1.0000 0.14500  0.70160  0.25050  Biso   1.000  C
  H550     1.0000 0.15290  0.71320  0.27520  Biso   1.000  H
  C1017    1.0000 0.15820  0.71860  0.21610  Biso   1.000  C
  C1018    1.0000 0.14400  0.70140  0.17830  Biso   1.000  C
  H551     1.0000 0.15190  0.71350  0.15330  Biso   1.000  H
  C1019    1.0000 0.11920  0.67040  0.17790  Biso   1.000  C
  H552     1.0000 0.11080  0.65980  0.15290  Biso   1.000  H
  C1020    1.0000 0.10570  0.65190  0.21390  Biso   1.000  C
  C1021    1.0000 0.08030  0.61760  0.21490  Biso   1.000  C
  H553     1.0000 0.07130  0.60610  0.18990  Biso   1.000  H
  O169     1.0000 0.03340  0.54840  0.21660  Biso   1.000  O
  O170     1.0000 0.03400  0.54790  0.28480  Biso   1.000  O
  C1022    1.0000 0.06130  0.54400  0.24910  Biso   1.000  C
  C1023    1.0000 0.10010  0.56960  0.24950  Biso   1.000  C
  C1024    1.0000 0.11750  0.58250  0.21270  Biso   1.000  C
  H554     1.0000 0.10650  0.57300  0.18770  Biso   1.000  H
  C1025    1.0000 0.14920  0.60660  0.21220  Biso   1.000  C
  H555     1.0000 0.15910  0.61620  0.18750  Biso   1.000  H
  C1026    1.0000 0.16830  0.61930  0.24830  Biso   1.000  C
  C1027    1.0000 0.20180  0.64540  0.24930  Biso   1.000  C
  H556     1.0000 0.21260  0.65400  0.22460  Biso   1.000  H
  C1028    1.0000 0.21790  0.65800  0.28340  Biso   1.000  C
  C1029    1.0000 0.20120  0.64340  0.32170  Biso   1.000  C
  H557     1.0000 0.21310  0.65100  0.34700  Biso   1.000  H
  C1030    1.0000 0.17030  0.61870  0.32140  Biso   1.000  C
  H558     1.0000 0.15990  0.60990  0.34620  Biso   1.000  H
  C1031    1.0000 0.15160  0.60560  0.28640  Biso   1.000  C
  C1032    1.0000 0.11760  0.58080  0.28490  Biso   1.000  C
  H559     1.0000 0.10610  0.57190  0.30990  Biso   1.000  H
  O171     1.0000 0.04780  0.53440  0.21560  Biso   1.000  O
  O172     1.0000 0.04830  0.53400  0.28320  Biso   1.000  O
  C1033    1.0000 0.68715  0.25366  0.71666  Biso   1.000  C
  C1034    1.0000 0.71697  0.25334  0.68732  Biso   1.000  C
  H560     1.0000 0.71690  0.23130  0.66880  Biso   1.000  H
  C1035    1.0000 0.54330  0.06110  0.75060  Biso   1.000  C
  C1036    1.0000 0.56950  0.10000  0.75050  Biso   1.000  C
  C1037    1.0000 0.58140  0.11730  0.78780  Biso   1.000  C
  H561     1.0000 0.57230  0.10580  0.81270  Biso   1.000  H
  C1038    1.0000 0.60660  0.14980  0.78830  Biso   1.000  C
  H562     1.0000 0.61570  0.16020  0.81300  Biso   1.000  H
  C1039    1.0000 0.61950  0.16820  0.75200  Biso   1.000  C
  C1040    1.0000 0.64500  0.20160  0.75050  Biso   1.000  C
  H563     1.0000 0.65290  0.21320  0.77520  Biso   1.000  H
  C1041    1.0000 0.65820  0.21860  0.71610  Biso   1.000  C
  C1042    1.0000 0.64400  0.20140  0.67830  Biso   1.000  C
  H564     1.0000 0.65190  0.21350  0.65330  Biso   1.000  H
  C1043    1.0000 0.61920  0.17040  0.67790  Biso   1.000  C
  H565     1.0000 0.61080  0.15980  0.65290  Biso   1.000  H
  C1044    1.0000 0.60570  0.15190  0.71390  Biso   1.000  C
  C1045    1.0000 0.58030  0.11760  0.71490  Biso   1.000  C
  H566     1.0000 0.57130  0.10610  0.68990  Biso   1.000  H
  O173     1.0000 0.53340  0.04840  0.71660  Biso   1.000  O
  O174     1.0000 0.53400  0.04790  0.78480  Biso   1.000  O
  C1046    1.0000 0.56130  0.04400  0.74910  Biso   1.000  C
  C1047    1.0000 0.60010  0.06960  0.74950  Biso   1.000  C
  C1048    1.0000 0.61750  0.08250  0.71270  Biso   1.000  C
  H567     1.0000 0.60650  0.07300  0.68770  Biso   1.000  H
  C1049    1.0000 0.64920  0.10660  0.71220  Biso   1.000  C
  H568     1.0000 0.65910  0.11620  0.68750  Biso   1.000  H
  C1050    1.0000 0.66830  0.11930  0.74830  Biso   1.000  C
  C1051    1.0000 0.70180  0.14540  0.74930  Biso   1.000  C
  H569     1.0000 0.71260  0.15400  0.72460  Biso   1.000  H
  C1052    1.0000 0.71790  0.15800  0.78340  Biso   1.000  C
  C1053    1.0000 0.70120  0.14340  0.82170  Biso   1.000  C
  H570     1.0000 0.71310  0.15100  0.84700  Biso   1.000  H
  C1054    1.0000 0.67030  0.11870  0.82140  Biso   1.000  C
  H571     1.0000 0.65990  0.10990  0.84620  Biso   1.000  H
  C1055    1.0000 0.65160  0.10560  0.78640  Biso   1.000  C
  C1056    1.0000 0.61760  0.08080  0.78490  Biso   1.000  C
  H572     1.0000 0.60610  0.07190  0.80990  Biso   1.000  H
  O175     1.0000 0.54780  0.03440  0.71560  Biso   1.000  O
  O176     1.0000 0.54830  0.03400  0.78320  Biso   1.000  O
  C1057    1.0000 0.81285  0.24634  0.21666  Biso   1.000  C
  C1058    1.0000 0.78303  0.24666  0.18732  Biso   1.000  C
  H573     1.0000 0.78310  0.26870  0.16880  Biso   1.000  H
  C1059    1.0000 0.95670  0.43890  0.25060  Biso   1.000  C
  C1060    1.0000 0.93050  0.40000  0.25050  Biso   1.000  C
  C1061    1.0000 0.91860  0.38270  0.28780  Biso   1.000  C
  H574     1.0000 0.92770  0.39420  0.31270  Biso   1.000  H
  C1062    1.0000 0.89340  0.35020  0.28830  Biso   1.000  C
  H575     1.0000 0.88430  0.33980  0.31300  Biso   1.000  H
  C1063    1.0000 0.88050  0.33180  0.25200  Biso   1.000  C
  C1064    1.0000 0.85500  0.29840  0.25050  Biso   1.000  C
  H576     1.0000 0.84710  0.28680  0.27520  Biso   1.000  H
  C1065    1.0000 0.84180  0.28140  0.21610  Biso   1.000  C
  C1066    1.0000 0.85600  0.29860  0.17830  Biso   1.000  C
  H577     1.0000 0.84810  0.28650  0.15330  Biso   1.000  H
  C1067    1.0000 0.88080  0.32960  0.17790  Biso   1.000  C
  H578     1.0000 0.88920  0.34020  0.15290  Biso   1.000  H
  C1068    1.0000 0.89430  0.34810  0.21390  Biso   1.000  C
  C1069    1.0000 0.91970  0.38240  0.21490  Biso   1.000  C
  H579     1.0000 0.92870  0.39390  0.18990  Biso   1.000  H
  O177     1.0000 0.96660  0.45160  0.21660  Biso   1.000  O
  O178     1.0000 0.96600  0.45210  0.28480  Biso   1.000  O
  C1070    1.0000 0.93870  0.45600  0.24910  Biso   1.000  C
  C1071    1.0000 0.89990  0.43040  0.24950  Biso   1.000  C
  C1072    1.0000 0.88250  0.41750  0.21270  Biso   1.000  C
  H580     1.0000 0.89350  0.42700  0.18770  Biso   1.000  H
  C1073    1.0000 0.85080  0.39340  0.21220  Biso   1.000  C
  H581     1.0000 0.84090  0.38380  0.18750  Biso   1.000  H
  C1074    1.0000 0.83170  0.38070  0.24830  Biso   1.000  C
  C1075    1.0000 0.79820  0.35460  0.24930  Biso   1.000  C
  H582     1.0000 0.78740  0.34600  0.22460  Biso   1.000  H
  C1076    1.0000 0.78210  0.34200  0.28340  Biso   1.000  C
  C1077    1.0000 0.79880  0.35660  0.32170  Biso   1.000  C
  H583     1.0000 0.78690  0.34900  0.34700  Biso   1.000  H
  C1078    1.0000 0.82970  0.38130  0.32140  Biso   1.000  C
  H584     1.0000 0.84010  0.39010  0.34620  Biso   1.000  H
  C1079    1.0000 0.84840  0.39440  0.28640  Biso   1.000  C
  C1080    1.0000 0.88240  0.41920  0.28490  Biso   1.000  C
  H585     1.0000 0.89390  0.42810  0.30990  Biso   1.000  H
  O179     1.0000 0.95220  0.46560  0.21560  Biso   1.000  O
  O180     1.0000 0.95170  0.46600  0.28320  Biso   1.000  O
  C1081    1.0000 0.31285  0.74634  0.71666  Biso   1.000  C
  C1082    1.0000 0.28303  0.74666  0.68732  Biso   1.000  C
  H586     1.0000 0.28310  0.76870  0.66880  Biso   1.000  H
  C1083    1.0000 0.45670  0.93890  0.75060  Biso   1.000  C
  C1084    1.0000 0.43050  0.90000  0.75050  Biso   1.000  C
  C1085    1.0000 0.41860  0.88270  0.78780  Biso   1.000  C
  H587     1.0000 0.42770  0.89420  0.81270  Biso   1.000  H
  C1086    1.0000 0.39340  0.85020  0.78830  Biso   1.000  C
  H588     1.0000 0.38430  0.83980  0.81300  Biso   1.000  H
  C1087    1.0000 0.38050  0.83180  0.75200  Biso   1.000  C
  C1088    1.0000 0.35500  0.79840  0.75050  Biso   1.000  C
  H589     1.0000 0.34710  0.78680  0.77520  Biso   1.000  H
  C1089    1.0000 0.34180  0.78140  0.71610  Biso   1.000  C
  C1090    1.0000 0.35600  0.79860  0.67830  Biso   1.000  C
  H590     1.0000 0.34810  0.78650  0.65330  Biso   1.000  H
  C1091    1.0000 0.38080  0.82960  0.67790  Biso   1.000  C
  H591     1.0000 0.38920  0.84020  0.65290  Biso   1.000  H
  C1092    1.0000 0.39430  0.84810  0.71390  Biso   1.000  C
  C1093    1.0000 0.41970  0.88240  0.71490  Biso   1.000  C
  H592     1.0000 0.42870  0.89390  0.68990  Biso   1.000  H
  O181     1.0000 0.46660  0.95160  0.71660  Biso   1.000  O
  O182     1.0000 0.46600  0.95210  0.78480  Biso   1.000  O
  C1094    1.0000 0.43870  0.95600  0.74910  Biso   1.000  C
  C1095    1.0000 0.39990  0.93040  0.74950  Biso   1.000  C
  C1096    1.0000 0.38250  0.91750  0.71270  Biso   1.000  C
  H593     1.0000 0.39350  0.92700  0.68770  Biso   1.000  H
  C1097    1.0000 0.35080  0.89340  0.71220  Biso   1.000  C
  H594     1.0000 0.34090  0.88380  0.68750  Biso   1.000  H
  C1098    1.0000 0.33170  0.88070  0.74830  Biso   1.000  C
  C1099    1.0000 0.29820  0.85460  0.74930  Biso   1.000  C
  H595     1.0000 0.28740  0.84600  0.72460  Biso   1.000  H
  C1100    1.0000 0.28210  0.84200  0.78340  Biso   1.000  C
  C1101    1.0000 0.29880  0.85660  0.82170  Biso   1.000  C
  H596     1.0000 0.28690  0.84900  0.84700  Biso   1.000  H
  C1102    1.0000 0.32970  0.88130  0.82140  Biso   1.000  C
  H597     1.0000 0.34010  0.89010  0.84620  Biso   1.000  H
  C1103    1.0000 0.34840  0.89440  0.78640  Biso   1.000  C
  C1104    1.0000 0.38240  0.91920  0.78490  Biso   1.000  C
  H598     1.0000 0.39390  0.92810  0.80990  Biso   1.000  H
  O183     1.0000 0.45220  0.96560  0.71560  Biso   1.000  O
  O184     1.0000 0.45170  0.96600  0.78320  Biso   1.000  O
  C1105    1.0000 0.18715  0.24634  0.78334  Biso   1.000  C
  C1106    1.0000 0.21697  0.24666  0.81268  Biso   1.000  C
  H599     1.0000 0.21690  0.26870  0.83120  Biso   1.000  H
  C1107    1.0000 0.04330  0.43890  0.74940  Biso   1.000  C
  C1108    1.0000 0.06950  0.40000  0.74950  Biso   1.000  C
  C1109    1.0000 0.08140  0.38270  0.71220  Biso   1.000  C
  H600     1.0000 0.07230  0.39420  0.68730  Biso   1.000  H
  C1110    1.0000 0.10660  0.35020  0.71170  Biso   1.000  C
  H601     1.0000 0.11570  0.33980  0.68700  Biso   1.000  H
  C1111    1.0000 0.11950  0.33180  0.74800  Biso   1.000  C
  C1112    1.0000 0.14500  0.29840  0.74950  Biso   1.000  C
  H602     1.0000 0.15290  0.28680  0.72480  Biso   1.000  H
  C1113    1.0000 0.15820  0.28140  0.78390  Biso   1.000  C
  C1114    1.0000 0.14400  0.29860  0.82170  Biso   1.000  C
  H603     1.0000 0.15190  0.28650  0.84670  Biso   1.000  H
  C1115    1.0000 0.11920  0.32960  0.82210  Biso   1.000  C
  H604     1.0000 0.11080  0.34020  0.84710  Biso   1.000  H
  C1116    1.0000 0.10570  0.34810  0.78610  Biso   1.000  C
  C1117    1.0000 0.08030  0.38240  0.78510  Biso   1.000  C
  H605     1.0000 0.07130  0.39390  0.81010  Biso   1.000  H
  O185     1.0000 0.03340  0.45160  0.78340  Biso   1.000  O
  O186     1.0000 0.03400  0.45210  0.71520  Biso   1.000  O
  C1118    1.0000 0.06130  0.45600  0.75090  Biso   1.000  C
  C1119    1.0000 0.10010  0.43040  0.75050  Biso   1.000  C
  C1120    1.0000 0.11750  0.41750  0.78730  Biso   1.000  C
  H606     1.0000 0.10650  0.42700  0.81230  Biso   1.000  H
  C1121    1.0000 0.14920  0.39340  0.78780  Biso   1.000  C
  H607     1.0000 0.15910  0.38380  0.81250  Biso   1.000  H
  C1122    1.0000 0.16830  0.38070  0.75170  Biso   1.000  C
  C1123    1.0000 0.20180  0.35460  0.75070  Biso   1.000  C
  H608     1.0000 0.21260  0.34600  0.77540  Biso   1.000  H
  C1124    1.0000 0.21790  0.34200  0.71660  Biso   1.000  C
  C1125    1.0000 0.20120  0.35660  0.67830  Biso   1.000  C
  H609     1.0000 0.21310  0.34900  0.65300  Biso   1.000  H
  C1126    1.0000 0.17030  0.38130  0.67860  Biso   1.000  C
  H610     1.0000 0.15990  0.39010  0.65380  Biso   1.000  H
  C1127    1.0000 0.15160  0.39440  0.71360  Biso   1.000  C
  C1128    1.0000 0.11760  0.41920  0.71510  Biso   1.000  C
  H611     1.0000 0.10610  0.42810  0.69010  Biso   1.000  H
  O187     1.0000 0.04780  0.46560  0.78440  Biso   1.000  O
  O188     1.0000 0.04830  0.46600  0.71680  Biso   1.000  O
  C1129    1.0000 0.68715  0.74634  0.28334  Biso   1.000  C
  C1130    1.0000 0.71697  0.74666  0.31268  Biso   1.000  C
  H612     1.0000 0.71690  0.76870  0.33120  Biso   1.000  H
  C1131    1.0000 0.54330  0.93890  0.24940  Biso   1.000  C
  C1132    1.0000 0.56950  0.90000  0.24950  Biso   1.000  C
  C1133    1.0000 0.58140  0.88270  0.21220  Biso   1.000  C
  H613     1.0000 0.57230  0.89420  0.18730  Biso   1.000  H
  C1134    1.0000 0.60660  0.85020  0.21170  Biso   1.000  C
  H614     1.0000 0.61570  0.83980  0.18700  Biso   1.000  H
  C1135    1.0000 0.61950  0.83180  0.24800  Biso   1.000  C
  C1136    1.0000 0.64500  0.79840  0.24950  Biso   1.000  C
  H615     1.0000 0.65290  0.78680  0.22480  Biso   1.000  H
  C1137    1.0000 0.65820  0.78140  0.28390  Biso   1.000  C
  C1138    1.0000 0.64400  0.79860  0.32170  Biso   1.000  C
  H616     1.0000 0.65190  0.78650  0.34670  Biso   1.000  H
  C1139    1.0000 0.61920  0.82960  0.32210  Biso   1.000  C
  H617     1.0000 0.61080  0.84020  0.34710  Biso   1.000  H
  C1140    1.0000 0.60570  0.84810  0.28610  Biso   1.000  C
  C1141    1.0000 0.58030  0.88240  0.28510  Biso   1.000  C
  H618     1.0000 0.57130  0.89390  0.31010  Biso   1.000  H
  O189     1.0000 0.53340  0.95160  0.28340  Biso   1.000  O
  O190     1.0000 0.53400  0.95210  0.21520  Biso   1.000  O
  C1142    1.0000 0.56130  0.95600  0.25090  Biso   1.000  C
  C1143    1.0000 0.60010  0.93040  0.25050  Biso   1.000  C
  C1144    1.0000 0.61750  0.91750  0.28730  Biso   1.000  C
  H619     1.0000 0.60650  0.92700  0.31230  Biso   1.000  H
  C1145    1.0000 0.64920  0.89340  0.28780  Biso   1.000  C
  H620     1.0000 0.65910  0.88380  0.31250  Biso   1.000  H
  C1146    1.0000 0.66830  0.88070  0.25170  Biso   1.000  C
  C1147    1.0000 0.70180  0.85460  0.25070  Biso   1.000  C
  H621     1.0000 0.71260  0.84600  0.27540  Biso   1.000  H
  C1148    1.0000 0.71790  0.84200  0.21660  Biso   1.000  C
  C1149    1.0000 0.70120  0.85660  0.17830  Biso   1.000  C
  H622     1.0000 0.71310  0.84900  0.15300  Biso   1.000  H
  C1150    1.0000 0.67030  0.88130  0.17860  Biso   1.000  C
  H623     1.0000 0.65990  0.89010  0.15380  Biso   1.000  H
  C1151    1.0000 0.65160  0.89440  0.21360  Biso   1.000  C
  C1152    1.0000 0.61760  0.91920  0.21510  Biso   1.000  C
  H624     1.0000 0.60610  0.92810  0.19010  Biso   1.000  H
  O191     1.0000 0.54780  0.96560  0.28440  Biso   1.000  O
  O192     1.0000 0.54830  0.96600  0.21680  Biso   1.000  O
  Cu1      1.0000 0.21013  0.00000  0.50000  Biso   1.000  Cu
  Cu2      1.0000 0.28987  0.00000  0.50000  Biso   1.000  Cu
  Cu3      1.0000 0.71013  0.50000  0.00000  Biso   1.000  Cu
  Cu4      1.0000 0.78987  0.50000  0.00000  Biso   1.000  Cu
  Cu5      1.0000 0.78987  0.00000  0.50000  Biso   1.000  Cu
  Cu6      1.0000 0.71013  0.00000  0.50000  Biso   1.000  Cu
  Cu7      1.0000 0.28987  0.50000  0.00000  Biso   1.000  Cu
  Cu8      1.0000 0.21013  0.50000  0.00000  Biso   1.000  Cu
  Cu9      1.0000 0.50000  0.21013  0.00000  Biso   1.000  Cu
  Cu10     1.0000 0.50000  0.28987  0.00000  Biso   1.000  Cu
  Cu11     1.0000 0.00000  0.71013  0.50000  Biso   1.000  Cu
  Cu12     1.0000 0.00000  0.78987  0.50000  Biso   1.000  Cu
  Cu13     1.0000 0.50000  0.78987  0.00000  Biso   1.000  Cu
  Cu14     1.0000 0.50000  0.71013  0.00000  Biso   1.000  Cu
  Cu15     1.0000 0.00000  0.28987  0.50000  Biso   1.000  Cu
  Cu16     1.0000 0.00000  0.21013  0.50000  Biso   1.000  Cu
  Cu17     1.0000 0.00000  0.50000  0.21013  Biso   1.000  Cu
  Cu18     1.0000 0.00000  0.50000  0.28987  Biso   1.000  Cu
  Cu19     1.0000 0.50000  0.00000  0.71013  Biso   1.000  Cu
  Cu20     1.0000 0.50000  0.00000  0.78987  Biso   1.000  Cu
  Cu21     1.0000 0.00000  0.50000  0.78987  Biso   1.000  Cu
  Cu22     1.0000 0.00000  0.50000  0.71013  Biso   1.000  Cu
  Cu23     1.0000 0.50000  0.00000  0.28987  Biso   1.000  Cu
  Cu24     1.0000 0.50000  0.00000  0.21013  Biso   1.000  Cu
