data_image0
_cell_length_a       32.983
_cell_length_b       14.9969
_cell_length_c       31.033
_cell_angle_alpha    90
_cell_angle_beta     100.553
_cell_angle_gamma    90

_symmetry_space_group_name_H-M    "P 1"
_symmetry_int_tables_number       1

loop_
  _symmetry_equiv_pos_as_xyz
  'x, y, z'

loop_
  _atom_site_label
  _atom_site_occupancy
  _atom_site_fract_x
  _atom_site_fract_y
  _atom_site_fract_z
  _atom_site_thermal_displace_type
  _atom_site_B_iso_or_equiv
  _atom_site_type_symbol
  N1       1.0000 0.18710  0.49010  0.27900  Biso   1.000  N
  C1       1.0000 0.21150  0.52830  0.31240  Biso   1.000  C
  H1       1.0000 0.22510  0.49120  0.33530  Biso   1.000  H
  C2       1.0000 0.21840  0.61990  0.31580  Biso   1.000  C
  H2       1.0000 0.23650  0.64470  0.34020  Biso   1.000  H
  C3       1.0000 0.19780  0.67340  0.28250  Biso   1.000  C
  C4       1.0000 0.17280  0.63270  0.24690  Biso   1.000  C
  H3       1.0000 0.15970  0.66740  0.22270  Biso   1.000  H
  C5       1.0000 0.16740  0.54250  0.24720  Biso   1.000  C
  H4       1.0000 0.14880  0.51590  0.22370  Biso   1.000  H
  C6       1.0000 0.20370  0.77180  0.28240  Biso   1.000  C
  N2       1.0000 0.23180  0.80900  0.31330  Biso   1.000  N
  C7       1.0000 0.23720  0.89540  0.30880  Biso   1.000  C
  N3       1.0000 0.21790  0.94480  0.27490  Biso   1.000  N
  C8       1.0000 0.19020  0.90160  0.24650  Biso   1.000  C
  N4       1.0000 0.18050  0.81580  0.24930  Biso   1.000  N
  N5       1.0000 0.32220  0.03240  0.40640  Biso   1.000  N
  C9       1.0000 0.29770  0.07600  0.37370  Biso   1.000  C
  H5       1.0000 0.29980  0.13910  0.37270  Biso   1.000  H
  C10      1.0000 0.27010  0.03460  0.34210  Biso   1.000  C
  H6       1.0000 0.25310  0.06840  0.31990  Biso   1.000  H
  C11      1.0000 0.26720  0.94310  0.34260  Biso   1.000  C
  C12      1.0000 0.29240  0.89670  0.37550  Biso   1.000  C
  H7       1.0000 0.29150  0.83340  0.37670  Biso   1.000  H
  C13      1.0000 0.31900  0.94500  0.40690  Biso   1.000  C
  H8       1.0000 0.33590  0.91310  0.42990  Biso   1.000  H
  N6       1.0000 0.12290  0.04560  0.13830  Biso   1.000  N
  C14      1.0000 0.11730  0.95870  0.14370  Biso   1.000  C
  H9       1.0000 0.09690  0.92890  0.12320  Biso   1.000  H
  C15      1.0000 0.13950  0.90990  0.17740  Biso   1.000  C
  H10      1.0000 0.13520  0.84740  0.17910  Biso   1.000  H
  C16      1.0000 0.16750  0.95180  0.20810  Biso   1.000  C
  C17      1.0000 0.17420  0.04270  0.20280  Biso   1.000  C
  H11      1.0000 0.19410  0.07390  0.22330  Biso   1.000  H
  C18      1.0000 0.15150  0.08630  0.16730  Biso   1.000  C
  H12      1.0000 0.15650  0.14790  0.16350  Biso   1.000  H
  Zn1      1.0000 0.08071  0.11981  0.09426  Biso   1.000  Zn
  I1       1.0000 0.02415  0.15460  0.13444  Biso   1.000  I
  I2       1.0000 0.11998  0.23370  0.05727  Biso   1.000  I
  N7       1.0000 0.06321  0.01980  0.04816  Biso   1.000  N
  C19      1.0000 0.08650  0.00330  0.01770  Biso   1.000  C
  H13      1.0000 0.10720  0.04510  0.01380  Biso   1.000  H
  C20      1.0000 0.08140  0.92800  0.99230  Biso   1.000  C
  H14      1.0000 0.09890  0.91710  0.97170  Biso   1.000  H
  C21      1.0000 0.05080  0.86880  0.99680  Biso   1.000  C
  C22      1.0000 0.02490  0.88750  0.02620  Biso   1.000  C
  H15      1.0000 0.00290  0.84850  0.02910  Biso   1.000  H
  C23      1.0000 0.03190  0.96420  0.05130  Biso   1.000  C
  H16      1.0000 0.01410  0.97800  0.07120  Biso   1.000  H
  C24      1.0000 0.04610  0.78500  0.97050  Biso   1.000  C
  N8       1.0000 0.01611  0.72760  0.97720  Biso   1.000  N
  C25      1.0000 0.01230  0.65740  0.95040  Biso   1.000  C
  N9       1.0000 0.03575  0.63930  0.92070  Biso   1.000  N
  C26      1.0000 0.06460  0.69920  0.91850  Biso   1.000  C
  N10      1.0000 0.07149  0.77310  0.94260  Biso   1.000  N
  N11      1.0000 0.91320  0.48000  0.95740  Biso   1.000  N
  C27      1.0000 0.92810  0.53290  0.99130  Biso   1.000  C
  H17      1.0000 0.91610  0.53060  0.01690  Biso   1.000  H
  C28      1.0000 0.96040  0.59040  0.99030  Biso   1.000  C
  H18      1.0000 0.97010  0.62780  0.01470  Biso   1.000  H
  C29      1.0000 0.97860  0.59370  0.95370  Biso   1.000  C
  C30      1.0000 0.96310  0.53840  0.91880  Biso   1.000  C
  H19      1.0000 0.97450  0.53890  0.89280  Biso   1.000  H
  C31      1.0000 0.93100  0.48280  0.92300  Biso   1.000  C
  H20      1.0000 0.92100  0.44380  0.89930  Biso   1.000  H
  Zn2      1.0000 0.86105  0.40234  0.95540  Biso   1.000  Zn
  I3       1.0000 0.87455  0.25322  0.92465  Biso   1.000  I
  I4       1.0000 0.83253  0.42909  0.02504  Biso   1.000  I
  N12      1.0000 0.14170  0.66030  0.82390  Biso   1.000  N
  C32      1.0000 0.10750  0.61090  0.82240  Biso   1.000  C
  H21      1.0000 0.10030  0.56880  0.79940  Biso   1.000  H
  C33      1.0000 0.08250  0.61960  0.85360  Biso   1.000  C
  H22      1.0000 0.05950  0.58120  0.85320  Biso   1.000  H
  C34      1.0000 0.09170  0.68600  0.88560  Biso   1.000  C
  C35      1.0000 0.12620  0.73750  0.88650  Biso   1.000  C
  H23      1.0000 0.13350  0.78200  0.90830  Biso   1.000  H
  C36      1.0000 0.15050  0.72300  0.85460  Biso   1.000  C
  H24      1.0000 0.17410  0.75930  0.85490  Biso   1.000  H
  Zn3      1.0000 0.17319  0.64355  0.77303  Biso   1.000  Zn
  I5       1.0000 0.12868  0.66846  0.69848  Biso   1.000  I
  I6       1.0000 0.23799  0.73141  0.80011  Biso   1.000  I
  I7       1.0000 0.15180  0.69970  0.71190  Biso   1.000  I
  I8       1.0000 0.25110  0.72360  0.81720  Biso   1.000  I
  Zn4      1.0000 0.18960  0.65170  0.78770  Biso   1.000  Zn
  I9       1.0000 0.01500  0.13610  0.13180  Biso   1.000  I
  I10      1.0000 0.11540  0.24070  0.06480  Biso   1.000  I
  N13      1.0000 0.68710  0.99010  0.27900  Biso   1.000  N
  C37      1.0000 0.71150  0.02830  0.31240  Biso   1.000  C
  H25      1.0000 0.72510  0.99120  0.33530  Biso   1.000  H
  C38      1.0000 0.71840  0.11990  0.31580  Biso   1.000  C
  H26      1.0000 0.73650  0.14470  0.34020  Biso   1.000  H
  C39      1.0000 0.69780  0.17340  0.28250  Biso   1.000  C
  C40      1.0000 0.67280  0.13270  0.24690  Biso   1.000  C
  H27      1.0000 0.65970  0.16740  0.22270  Biso   1.000  H
  C41      1.0000 0.66740  0.04250  0.24720  Biso   1.000  C
  H28      1.0000 0.64880  0.01590  0.22370  Biso   1.000  H
  C42      1.0000 0.70370  0.27180  0.28240  Biso   1.000  C
  N14      1.0000 0.73180  0.30900  0.31330  Biso   1.000  N
  C43      1.0000 0.73720  0.39540  0.30880  Biso   1.000  C
  N15      1.0000 0.71790  0.44480  0.27490  Biso   1.000  N
  C44      1.0000 0.69020  0.40160  0.24650  Biso   1.000  C
  N16      1.0000 0.68050  0.31580  0.24930  Biso   1.000  N
  N17      1.0000 0.82220  0.53240  0.40640  Biso   1.000  N
  C45      1.0000 0.79770  0.57600  0.37370  Biso   1.000  C
  H29      1.0000 0.79980  0.63910  0.37270  Biso   1.000  H
  C46      1.0000 0.77010  0.53460  0.34210  Biso   1.000  C
  H30      1.0000 0.75310  0.56840  0.31990  Biso   1.000  H
  C47      1.0000 0.76720  0.44310  0.34260  Biso   1.000  C
  C48      1.0000 0.79240  0.39670  0.37550  Biso   1.000  C
  H31      1.0000 0.79150  0.33340  0.37670  Biso   1.000  H
  C49      1.0000 0.81900  0.44500  0.40690  Biso   1.000  C
  H32      1.0000 0.83590  0.41310  0.42990  Biso   1.000  H
  N18      1.0000 0.62290  0.54560  0.13830  Biso   1.000  N
  C50      1.0000 0.61730  0.45870  0.14370  Biso   1.000  C
  H33      1.0000 0.59690  0.42890  0.12320  Biso   1.000  H
  C51      1.0000 0.63950  0.40990  0.17740  Biso   1.000  C
  H34      1.0000 0.63520  0.34740  0.17910  Biso   1.000  H
  C52      1.0000 0.66750  0.45180  0.20810  Biso   1.000  C
  C53      1.0000 0.67420  0.54270  0.20280  Biso   1.000  C
  H35      1.0000 0.69410  0.57390  0.22330  Biso   1.000  H
  C54      1.0000 0.65150  0.58630  0.16730  Biso   1.000  C
  H36      1.0000 0.65650  0.64790  0.16350  Biso   1.000  H
  Zn5      1.0000 0.58071  0.61981  0.09426  Biso   1.000  Zn
  I11      1.0000 0.52415  0.65460  0.13444  Biso   1.000  I
  I12      1.0000 0.61998  0.73370  0.05727  Biso   1.000  I
  N19      1.0000 0.56321  0.51980  0.04816  Biso   1.000  N
  C55      1.0000 0.58650  0.50330  0.01770  Biso   1.000  C
  H37      1.0000 0.60720  0.54510  0.01380  Biso   1.000  H
  C56      1.0000 0.58140  0.42800  0.99230  Biso   1.000  C
  H38      1.0000 0.59890  0.41710  0.97170  Biso   1.000  H
  C57      1.0000 0.55080  0.36880  0.99680  Biso   1.000  C
  C58      1.0000 0.52490  0.38750  0.02620  Biso   1.000  C
  H39      1.0000 0.50290  0.34850  0.02910  Biso   1.000  H
  C59      1.0000 0.53190  0.46420  0.05130  Biso   1.000  C
  H40      1.0000 0.51410  0.47800  0.07120  Biso   1.000  H
  C60      1.0000 0.54610  0.28500  0.97050  Biso   1.000  C
  N20      1.0000 0.51611  0.22760  0.97720  Biso   1.000  N
  C61      1.0000 0.51230  0.15740  0.95040  Biso   1.000  C
  N21      1.0000 0.53575  0.13930  0.92070  Biso   1.000  N
  C62      1.0000 0.56460  0.19920  0.91850  Biso   1.000  C
  N22      1.0000 0.57149  0.27310  0.94260  Biso   1.000  N
  N23      1.0000 0.41320  0.98000  0.95740  Biso   1.000  N
  C63      1.0000 0.42810  0.03290  0.99130  Biso   1.000  C
  H41      1.0000 0.41610  0.03060  0.01690  Biso   1.000  H
  C64      1.0000 0.46040  0.09040  0.99030  Biso   1.000  C
  H42      1.0000 0.47010  0.12780  0.01470  Biso   1.000  H
  C65      1.0000 0.47860  0.09370  0.95370  Biso   1.000  C
  C66      1.0000 0.46310  0.03840  0.91880  Biso   1.000  C
  H43      1.0000 0.47450  0.03890  0.89280  Biso   1.000  H
  C67      1.0000 0.43100  0.98280  0.92300  Biso   1.000  C
  H44      1.0000 0.42100  0.94380  0.89930  Biso   1.000  H
  Zn6      1.0000 0.36105  0.90234  0.95540  Biso   1.000  Zn
  I13      1.0000 0.37455  0.75322  0.92465  Biso   1.000  I
  I14      1.0000 0.33253  0.92909  0.02504  Biso   1.000  I
  N24      1.0000 0.64170  0.16030  0.82390  Biso   1.000  N
  C68      1.0000 0.60750  0.11090  0.82240  Biso   1.000  C
  H45      1.0000 0.60030  0.06880  0.79940  Biso   1.000  H
  C69      1.0000 0.58250  0.11960  0.85360  Biso   1.000  C
  H46      1.0000 0.55950  0.08120  0.85320  Biso   1.000  H
  C70      1.0000 0.59170  0.18600  0.88560  Biso   1.000  C
  C71      1.0000 0.62620  0.23750  0.88650  Biso   1.000  C
  H47      1.0000 0.63350  0.28200  0.90830  Biso   1.000  H
  C72      1.0000 0.65050  0.22300  0.85460  Biso   1.000  C
  H48      1.0000 0.67410  0.25930  0.85490  Biso   1.000  H
  Zn7      1.0000 0.67319  0.14355  0.77303  Biso   1.000  Zn
  I15      1.0000 0.62868  0.16846  0.69848  Biso   1.000  I
  I16      1.0000 0.73799  0.23141  0.80011  Biso   1.000  I
  I17      1.0000 0.65180  0.19970  0.71190  Biso   1.000  I
  I18      1.0000 0.75110  0.22360  0.81720  Biso   1.000  I
  Zn8      1.0000 0.68960  0.15170  0.78770  Biso   1.000  Zn
  I19      1.0000 0.51500  0.63610  0.13180  Biso   1.000  I
  I20      1.0000 0.61540  0.74070  0.06480  Biso   1.000  I
  N25      1.0000 0.18710  0.50990  0.77900  Biso   1.000  N
  C73      1.0000 0.21150  0.47170  0.81240  Biso   1.000  C
  H49      1.0000 0.22510  0.50880  0.83530  Biso   1.000  H
  C74      1.0000 0.21840  0.38010  0.81580  Biso   1.000  C
  H50      1.0000 0.23650  0.35530  0.84020  Biso   1.000  H
  C75      1.0000 0.19780  0.32660  0.78250  Biso   1.000  C
  C76      1.0000 0.17280  0.36730  0.74690  Biso   1.000  C
  H51      1.0000 0.15970  0.33260  0.72270  Biso   1.000  H
  C77      1.0000 0.16740  0.45750  0.74720  Biso   1.000  C
  H52      1.0000 0.14880  0.48410  0.72370  Biso   1.000  H
  C78      1.0000 0.20370  0.22820  0.78240  Biso   1.000  C
  N26      1.0000 0.23180  0.19100  0.81330  Biso   1.000  N
  C79      1.0000 0.23720  0.10460  0.80880  Biso   1.000  C
  N27      1.0000 0.21790  0.05520  0.77490  Biso   1.000  N
  C80      1.0000 0.19020  0.09840  0.74650  Biso   1.000  C
  N28      1.0000 0.18050  0.18420  0.74930  Biso   1.000  N
  N29      1.0000 0.32220  0.96760  0.90640  Biso   1.000  N
  C81      1.0000 0.29770  0.92400  0.87370  Biso   1.000  C
  H53      1.0000 0.29980  0.86090  0.87270  Biso   1.000  H
  C82      1.0000 0.27010  0.96540  0.84210  Biso   1.000  C
  H54      1.0000 0.25310  0.93160  0.81990  Biso   1.000  H
  C83      1.0000 0.26720  0.05690  0.84260  Biso   1.000  C
  C84      1.0000 0.29240  0.10330  0.87550  Biso   1.000  C
  H55      1.0000 0.29150  0.16660  0.87670  Biso   1.000  H
  C85      1.0000 0.31900  0.05500  0.90690  Biso   1.000  C
  H56      1.0000 0.33590  0.08690  0.92990  Biso   1.000  H
  N30      1.0000 0.12290  0.95440  0.63830  Biso   1.000  N
  C86      1.0000 0.11730  0.04130  0.64370  Biso   1.000  C
  H57      1.0000 0.09690  0.07110  0.62320  Biso   1.000  H
  C87      1.0000 0.13950  0.09010  0.67740  Biso   1.000  C
  H58      1.0000 0.13520  0.15260  0.67910  Biso   1.000  H
  C88      1.0000 0.16750  0.04820  0.70810  Biso   1.000  C
  C89      1.0000 0.17420  0.95730  0.70280  Biso   1.000  C
  H59      1.0000 0.19410  0.92610  0.72330  Biso   1.000  H
  C90      1.0000 0.15150  0.91370  0.66730  Biso   1.000  C
  H60      1.0000 0.15650  0.85210  0.66350  Biso   1.000  H
  Zn9      1.0000 0.08071  0.88019  0.59426  Biso   1.000  Zn
  I21      1.0000 0.02415  0.84540  0.63444  Biso   1.000  I
  I22      1.0000 0.11998  0.76630  0.55727  Biso   1.000  I
  N31      1.0000 0.06321  0.98020  0.54816  Biso   1.000  N
  C91      1.0000 0.08650  0.99670  0.51770  Biso   1.000  C
  H61      1.0000 0.10720  0.95490  0.51380  Biso   1.000  H
  C92      1.0000 0.08140  0.07200  0.49230  Biso   1.000  C
  H62      1.0000 0.09890  0.08290  0.47170  Biso   1.000  H
  C93      1.0000 0.05080  0.13120  0.49680  Biso   1.000  C
  C94      1.0000 0.02490  0.11250  0.52620  Biso   1.000  C
  H63      1.0000 0.00290  0.15150  0.52910  Biso   1.000  H
  C95      1.0000 0.03190  0.03580  0.55130  Biso   1.000  C
  H64      1.0000 0.01410  0.02200  0.57120  Biso   1.000  H
  C96      1.0000 0.04610  0.21500  0.47050  Biso   1.000  C
  N32      1.0000 0.01611  0.27240  0.47720  Biso   1.000  N
  C97      1.0000 0.01230  0.34260  0.45040  Biso   1.000  C
  N33      1.0000 0.03575  0.36070  0.42070  Biso   1.000  N
  C98      1.0000 0.06460  0.30080  0.41850  Biso   1.000  C
  N34      1.0000 0.07149  0.22690  0.44260  Biso   1.000  N
  N35      1.0000 0.91320  0.52000  0.45740  Biso   1.000  N
  C99      1.0000 0.92810  0.46710  0.49130  Biso   1.000  C
  H65      1.0000 0.91610  0.46940  0.51690  Biso   1.000  H
  C100     1.0000 0.96040  0.40960  0.49030  Biso   1.000  C
  H66      1.0000 0.97010  0.37220  0.51470  Biso   1.000  H
  C101     1.0000 0.97860  0.40630  0.45370  Biso   1.000  C
  C102     1.0000 0.96310  0.46160  0.41880  Biso   1.000  C
  H67      1.0000 0.97450  0.46110  0.39280  Biso   1.000  H
  C103     1.0000 0.93100  0.51720  0.42300  Biso   1.000  C
  H68      1.0000 0.92100  0.55620  0.39930  Biso   1.000  H
  Zn10     1.0000 0.86105  0.59766  0.45540  Biso   1.000  Zn
  I23      1.0000 0.87455  0.74678  0.42465  Biso   1.000  I
  I24      1.0000 0.83253  0.57091  0.52504  Biso   1.000  I
  N36      1.0000 0.14170  0.33970  0.32390  Biso   1.000  N
  C104     1.0000 0.10750  0.38910  0.32240  Biso   1.000  C
  H69      1.0000 0.10030  0.43120  0.29940  Biso   1.000  H
  C105     1.0000 0.08250  0.38040  0.35360  Biso   1.000  C
  H70      1.0000 0.05950  0.41880  0.35320  Biso   1.000  H
  C106     1.0000 0.09170  0.31400  0.38560  Biso   1.000  C
  C107     1.0000 0.12620  0.26250  0.38650  Biso   1.000  C
  H71      1.0000 0.13350  0.21800  0.40830  Biso   1.000  H
  C108     1.0000 0.15050  0.27700  0.35460  Biso   1.000  C
  H72      1.0000 0.17410  0.24070  0.35490  Biso   1.000  H
  Zn11     1.0000 0.17319  0.35645  0.27303  Biso   1.000  Zn
  I25      1.0000 0.12868  0.33154  0.19848  Biso   1.000  I
  I26      1.0000 0.23799  0.26859  0.30011  Biso   1.000  I
  I27      1.0000 0.15180  0.30030  0.21190  Biso   1.000  I
  I28      1.0000 0.25110  0.27640  0.31720  Biso   1.000  I
  Zn12     1.0000 0.18960  0.34830  0.28770  Biso   1.000  Zn
  I29      1.0000 0.01500  0.86390  0.63180  Biso   1.000  I
  I30      1.0000 0.11540  0.75930  0.56480  Biso   1.000  I
  N37      1.0000 0.68710  0.00990  0.77900  Biso   1.000  N
  C109     1.0000 0.71150  0.97170  0.81240  Biso   1.000  C
  H73      1.0000 0.72510  0.00880  0.83530  Biso   1.000  H
  C110     1.0000 0.71840  0.88010  0.81580  Biso   1.000  C
  H74      1.0000 0.73650  0.85530  0.84020  Biso   1.000  H
  C111     1.0000 0.69780  0.82660  0.78250  Biso   1.000  C
  C112     1.0000 0.67280  0.86730  0.74690  Biso   1.000  C
  H75      1.0000 0.65970  0.83260  0.72270  Biso   1.000  H
  C113     1.0000 0.66740  0.95750  0.74720  Biso   1.000  C
  H76      1.0000 0.64880  0.98410  0.72370  Biso   1.000  H
  C114     1.0000 0.70370  0.72820  0.78240  Biso   1.000  C
  N38      1.0000 0.73180  0.69100  0.81330  Biso   1.000  N
  C115     1.0000 0.73720  0.60460  0.80880  Biso   1.000  C
  N39      1.0000 0.71790  0.55520  0.77490  Biso   1.000  N
  C116     1.0000 0.69020  0.59840  0.74650  Biso   1.000  C
  N40      1.0000 0.68050  0.68420  0.74930  Biso   1.000  N
  N41      1.0000 0.82220  0.46760  0.90640  Biso   1.000  N
  C117     1.0000 0.79770  0.42400  0.87370  Biso   1.000  C
  H77      1.0000 0.79980  0.36090  0.87270  Biso   1.000  H
  C118     1.0000 0.77010  0.46540  0.84210  Biso   1.000  C
  H78      1.0000 0.75310  0.43160  0.81990  Biso   1.000  H
  C119     1.0000 0.76720  0.55690  0.84260  Biso   1.000  C
  C120     1.0000 0.79240  0.60330  0.87550  Biso   1.000  C
  H79      1.0000 0.79150  0.66660  0.87670  Biso   1.000  H
  C121     1.0000 0.81900  0.55500  0.90690  Biso   1.000  C
  H80      1.0000 0.83590  0.58690  0.92990  Biso   1.000  H
  N42      1.0000 0.62290  0.45440  0.63830  Biso   1.000  N
  C122     1.0000 0.61730  0.54130  0.64370  Biso   1.000  C
  H81      1.0000 0.59690  0.57110  0.62320  Biso   1.000  H
  C123     1.0000 0.63950  0.59010  0.67740  Biso   1.000  C
  H82      1.0000 0.63520  0.65260  0.67910  Biso   1.000  H
  C124     1.0000 0.66750  0.54820  0.70810  Biso   1.000  C
  C125     1.0000 0.67420  0.45730  0.70280  Biso   1.000  C
  H83      1.0000 0.69410  0.42610  0.72330  Biso   1.000  H
  C126     1.0000 0.65150  0.41370  0.66730  Biso   1.000  C
  H84      1.0000 0.65650  0.35210  0.66350  Biso   1.000  H
  Zn13     1.0000 0.58071  0.38019  0.59426  Biso   1.000  Zn
  I31      1.0000 0.52415  0.34540  0.63444  Biso   1.000  I
  I32      1.0000 0.61998  0.26630  0.55727  Biso   1.000  I
  N43      1.0000 0.56321  0.48020  0.54816  Biso   1.000  N
  C127     1.0000 0.58650  0.49670  0.51770  Biso   1.000  C
  H85      1.0000 0.60720  0.45490  0.51380  Biso   1.000  H
  C128     1.0000 0.58140  0.57200  0.49230  Biso   1.000  C
  H86      1.0000 0.59890  0.58290  0.47170  Biso   1.000  H
  C129     1.0000 0.55080  0.63120  0.49680  Biso   1.000  C
  C130     1.0000 0.52490  0.61250  0.52620  Biso   1.000  C
  H87      1.0000 0.50290  0.65150  0.52910  Biso   1.000  H
  C131     1.0000 0.53190  0.53580  0.55130  Biso   1.000  C
  H88      1.0000 0.51410  0.52200  0.57120  Biso   1.000  H
  C132     1.0000 0.54610  0.71500  0.47050  Biso   1.000  C
  N44      1.0000 0.51611  0.77240  0.47720  Biso   1.000  N
  C133     1.0000 0.51230  0.84260  0.45040  Biso   1.000  C
  N45      1.0000 0.53575  0.86070  0.42070  Biso   1.000  N
  C134     1.0000 0.56460  0.80080  0.41850  Biso   1.000  C
  N46      1.0000 0.57149  0.72690  0.44260  Biso   1.000  N
  N47      1.0000 0.41320  0.02000  0.45740  Biso   1.000  N
  C135     1.0000 0.42810  0.96710  0.49130  Biso   1.000  C
  H89      1.0000 0.41610  0.96940  0.51690  Biso   1.000  H
  C136     1.0000 0.46040  0.90960  0.49030  Biso   1.000  C
  H90      1.0000 0.47010  0.87220  0.51470  Biso   1.000  H
  C137     1.0000 0.47860  0.90630  0.45370  Biso   1.000  C
  C138     1.0000 0.46310  0.96160  0.41880  Biso   1.000  C
  H91      1.0000 0.47450  0.96110  0.39280  Biso   1.000  H
  C139     1.0000 0.43100  0.01720  0.42300  Biso   1.000  C
  H92      1.0000 0.42100  0.05620  0.39930  Biso   1.000  H
  Zn14     1.0000 0.36105  0.09766  0.45540  Biso   1.000  Zn
  I33      1.0000 0.37455  0.24678  0.42465  Biso   1.000  I
  I34      1.0000 0.33253  0.07091  0.52504  Biso   1.000  I
  N48      1.0000 0.64170  0.83970  0.32390  Biso   1.000  N
  C140     1.0000 0.60750  0.88910  0.32240  Biso   1.000  C
  H93      1.0000 0.60030  0.93120  0.29940  Biso   1.000  H
  C141     1.0000 0.58250  0.88040  0.35360  Biso   1.000  C
  H94      1.0000 0.55950  0.91880  0.35320  Biso   1.000  H
  C142     1.0000 0.59170  0.81400  0.38560  Biso   1.000  C
  C143     1.0000 0.62620  0.76250  0.38650  Biso   1.000  C
  H95      1.0000 0.63350  0.71800  0.40830  Biso   1.000  H
  C144     1.0000 0.65050  0.77700  0.35460  Biso   1.000  C
  H96      1.0000 0.67410  0.74070  0.35490  Biso   1.000  H
  Zn15     1.0000 0.67319  0.85645  0.27303  Biso   1.000  Zn
  I35      1.0000 0.62868  0.83154  0.19848  Biso   1.000  I
  I36      1.0000 0.73799  0.76859  0.30011  Biso   1.000  I
  I37      1.0000 0.65180  0.80030  0.21190  Biso   1.000  I
  I38      1.0000 0.75110  0.77640  0.31720  Biso   1.000  I
  Zn16     1.0000 0.68960  0.84830  0.28770  Biso   1.000  Zn
  I39      1.0000 0.51500  0.36390  0.63180  Biso   1.000  I
  I40      1.0000 0.61540  0.25930  0.56480  Biso   1.000  I
  N49      1.0000 0.81290  0.49010  0.22100  Biso   1.000  N
  C145     1.0000 0.78850  0.52830  0.18760  Biso   1.000  C
  H97      1.0000 0.77490  0.49120  0.16470  Biso   1.000  H
  C146     1.0000 0.78160  0.61990  0.18420  Biso   1.000  C
  H98      1.0000 0.76350  0.64470  0.15980  Biso   1.000  H
  C147     1.0000 0.80220  0.67340  0.21750  Biso   1.000  C
  C148     1.0000 0.82720  0.63270  0.25310  Biso   1.000  C
  H99      1.0000 0.84030  0.66740  0.27730  Biso   1.000  H
  C149     1.0000 0.83260  0.54250  0.25280  Biso   1.000  C
  H100     1.0000 0.85120  0.51590  0.27630  Biso   1.000  H
  C150     1.0000 0.79630  0.77180  0.21760  Biso   1.000  C
  N50      1.0000 0.76820  0.80900  0.18670  Biso   1.000  N
  C151     1.0000 0.76280  0.89540  0.19120  Biso   1.000  C
  N51      1.0000 0.78210  0.94480  0.22510  Biso   1.000  N
  C152     1.0000 0.80980  0.90160  0.25350  Biso   1.000  C
  N52      1.0000 0.81950  0.81580  0.25070  Biso   1.000  N
  N53      1.0000 0.67780  0.03240  0.09360  Biso   1.000  N
  C153     1.0000 0.70230  0.07600  0.12630  Biso   1.000  C
  H101     1.0000 0.70020  0.13910  0.12730  Biso   1.000  H
  C154     1.0000 0.72990  0.03460  0.15790  Biso   1.000  C
  H102     1.0000 0.74690  0.06840  0.18010  Biso   1.000  H
  C155     1.0000 0.73280  0.94310  0.15740  Biso   1.000  C
  C156     1.0000 0.70760  0.89670  0.12450  Biso   1.000  C
  H103     1.0000 0.70850  0.83340  0.12330  Biso   1.000  H
  C157     1.0000 0.68100  0.94500  0.09310  Biso   1.000  C
  H104     1.0000 0.66410  0.91310  0.07010  Biso   1.000  H
  N54      1.0000 0.87710  0.04560  0.36170  Biso   1.000  N
  C158     1.0000 0.88270  0.95870  0.35630  Biso   1.000  C
  H105     1.0000 0.90310  0.92890  0.37680  Biso   1.000  H
  C159     1.0000 0.86050  0.90990  0.32260  Biso   1.000  C
  H106     1.0000 0.86480  0.84740  0.32090  Biso   1.000  H
  C160     1.0000 0.83250  0.95180  0.29190  Biso   1.000  C
  C161     1.0000 0.82580  0.04270  0.29720  Biso   1.000  C
  H107     1.0000 0.80590  0.07390  0.27670  Biso   1.000  H
  C162     1.0000 0.84850  0.08630  0.33270  Biso   1.000  C
  H108     1.0000 0.84350  0.14790  0.33650  Biso   1.000  H
  Zn17     1.0000 0.91929  0.11981  0.40574  Biso   1.000  Zn
  I41      1.0000 0.97585  0.15460  0.36556  Biso   1.000  I
  I42      1.0000 0.88002  0.23370  0.44273  Biso   1.000  I
  N55      1.0000 0.93679  0.01980  0.45184  Biso   1.000  N
  C163     1.0000 0.91350  0.00330  0.48230  Biso   1.000  C
  H109     1.0000 0.89280  0.04510  0.48620  Biso   1.000  H
  C164     1.0000 0.91860  0.92800  0.50770  Biso   1.000  C
  H110     1.0000 0.90110  0.91710  0.52830  Biso   1.000  H
  C165     1.0000 0.94920  0.86880  0.50320  Biso   1.000  C
  C166     1.0000 0.97510  0.88750  0.47380  Biso   1.000  C
  H111     1.0000 0.99710  0.84850  0.47090  Biso   1.000  H
  C167     1.0000 0.96810  0.96420  0.44870  Biso   1.000  C
  H112     1.0000 0.98590  0.97800  0.42880  Biso   1.000  H
  C168     1.0000 0.95390  0.78500  0.52950  Biso   1.000  C
  N56      1.0000 0.98389  0.72760  0.52280  Biso   1.000  N
  C169     1.0000 0.98770  0.65740  0.54960  Biso   1.000  C
  N57      1.0000 0.96425  0.63930  0.57930  Biso   1.000  N
  C170     1.0000 0.93540  0.69920  0.58150  Biso   1.000  C
  N58      1.0000 0.92851  0.77310  0.55740  Biso   1.000  N
  N59      1.0000 0.08680  0.48000  0.54260  Biso   1.000  N
  C171     1.0000 0.07190  0.53290  0.50870  Biso   1.000  C
  H113     1.0000 0.08390  0.53060  0.48310  Biso   1.000  H
  C172     1.0000 0.03960  0.59040  0.50970  Biso   1.000  C
  H114     1.0000 0.02990  0.62780  0.48530  Biso   1.000  H
  C173     1.0000 0.02140  0.59370  0.54630  Biso   1.000  C
  C174     1.0000 0.03690  0.53840  0.58120  Biso   1.000  C
  H115     1.0000 0.02550  0.53890  0.60720  Biso   1.000  H
  C175     1.0000 0.06900  0.48280  0.57700  Biso   1.000  C
  H116     1.0000 0.07900  0.44380  0.60070  Biso   1.000  H
  Zn18     1.0000 0.13895  0.40234  0.54460  Biso   1.000  Zn
  I43      1.0000 0.12545  0.25322  0.57535  Biso   1.000  I
  I44      1.0000 0.16747  0.42909  0.47496  Biso   1.000  I
  N60      1.0000 0.85830  0.66030  0.67610  Biso   1.000  N
  C176     1.0000 0.89250  0.61090  0.67760  Biso   1.000  C
  H117     1.0000 0.89970  0.56880  0.70060  Biso   1.000  H
  C177     1.0000 0.91750  0.61960  0.64640  Biso   1.000  C
  H118     1.0000 0.94050  0.58120  0.64680  Biso   1.000  H
  C178     1.0000 0.90830  0.68600  0.61440  Biso   1.000  C
  C179     1.0000 0.87380  0.73750  0.61350  Biso   1.000  C
  H119     1.0000 0.86650  0.78200  0.59170  Biso   1.000  H
  C180     1.0000 0.84950  0.72300  0.64540  Biso   1.000  C
  H120     1.0000 0.82590  0.75930  0.64510  Biso   1.000  H
  Zn19     1.0000 0.82681  0.64355  0.72697  Biso   1.000  Zn
  I45      1.0000 0.87132  0.66846  0.80152  Biso   1.000  I
  I46      1.0000 0.76201  0.73141  0.69989  Biso   1.000  I
  I47      1.0000 0.84820  0.69970  0.78810  Biso   1.000  I
  I48      1.0000 0.74890  0.72360  0.68280  Biso   1.000  I
  Zn20     1.0000 0.81040  0.65170  0.71230  Biso   1.000  Zn
  I49      1.0000 0.98500  0.13610  0.36820  Biso   1.000  I
  I50      1.0000 0.88460  0.24070  0.43520  Biso   1.000  I
  N61      1.0000 0.31290  0.99010  0.22100  Biso   1.000  N
  C181     1.0000 0.28850  0.02830  0.18760  Biso   1.000  C
  H121     1.0000 0.27490  0.99120  0.16470  Biso   1.000  H
  C182     1.0000 0.28160  0.11990  0.18420  Biso   1.000  C
  H122     1.0000 0.26350  0.14470  0.15980  Biso   1.000  H
  C183     1.0000 0.30220  0.17340  0.21750  Biso   1.000  C
  C184     1.0000 0.32720  0.13270  0.25310  Biso   1.000  C
  H123     1.0000 0.34030  0.16740  0.27730  Biso   1.000  H
  C185     1.0000 0.33260  0.04250  0.25280  Biso   1.000  C
  H124     1.0000 0.35120  0.01590  0.27630  Biso   1.000  H
  C186     1.0000 0.29630  0.27180  0.21760  Biso   1.000  C
  N62      1.0000 0.26820  0.30900  0.18670  Biso   1.000  N
  C187     1.0000 0.26280  0.39540  0.19120  Biso   1.000  C
  N63      1.0000 0.28210  0.44480  0.22510  Biso   1.000  N
  C188     1.0000 0.30980  0.40160  0.25350  Biso   1.000  C
  N64      1.0000 0.31950  0.31580  0.25070  Biso   1.000  N
  N65      1.0000 0.17780  0.53240  0.09360  Biso   1.000  N
  C189     1.0000 0.20230  0.57600  0.12630  Biso   1.000  C
  H125     1.0000 0.20020  0.63910  0.12730  Biso   1.000  H
  C190     1.0000 0.22990  0.53460  0.15790  Biso   1.000  C
  H126     1.0000 0.24690  0.56840  0.18010  Biso   1.000  H
  C191     1.0000 0.23280  0.44310  0.15740  Biso   1.000  C
  C192     1.0000 0.20760  0.39670  0.12450  Biso   1.000  C
  H127     1.0000 0.20850  0.33340  0.12330  Biso   1.000  H
  C193     1.0000 0.18100  0.44500  0.09310  Biso   1.000  C
  H128     1.0000 0.16410  0.41310  0.07010  Biso   1.000  H
  N66      1.0000 0.37710  0.54560  0.36170  Biso   1.000  N
  C194     1.0000 0.38270  0.45870  0.35630  Biso   1.000  C
  H129     1.0000 0.40310  0.42890  0.37680  Biso   1.000  H
  C195     1.0000 0.36050  0.40990  0.32260  Biso   1.000  C
  H130     1.0000 0.36480  0.34740  0.32090  Biso   1.000  H
  C196     1.0000 0.33250  0.45180  0.29190  Biso   1.000  C
  C197     1.0000 0.32580  0.54270  0.29720  Biso   1.000  C
  H131     1.0000 0.30590  0.57390  0.27670  Biso   1.000  H
  C198     1.0000 0.34850  0.58630  0.33270  Biso   1.000  C
  H132     1.0000 0.34350  0.64790  0.33650  Biso   1.000  H
  Zn21     1.0000 0.41929  0.61981  0.40574  Biso   1.000  Zn
  I51      1.0000 0.47585  0.65460  0.36556  Biso   1.000  I
  I52      1.0000 0.38002  0.73370  0.44273  Biso   1.000  I
  N67      1.0000 0.43679  0.51980  0.45184  Biso   1.000  N
  C199     1.0000 0.41350  0.50330  0.48230  Biso   1.000  C
  H133     1.0000 0.39280  0.54510  0.48620  Biso   1.000  H
  C200     1.0000 0.41860  0.42800  0.50770  Biso   1.000  C
  H134     1.0000 0.40110  0.41710  0.52830  Biso   1.000  H
  C201     1.0000 0.44920  0.36880  0.50320  Biso   1.000  C
  C202     1.0000 0.47510  0.38750  0.47380  Biso   1.000  C
  H135     1.0000 0.49710  0.34850  0.47090  Biso   1.000  H
  C203     1.0000 0.46810  0.46420  0.44870  Biso   1.000  C
  H136     1.0000 0.48590  0.47800  0.42880  Biso   1.000  H
  C204     1.0000 0.45390  0.28500  0.52950  Biso   1.000  C
  N68      1.0000 0.48389  0.22760  0.52280  Biso   1.000  N
  C205     1.0000 0.48770  0.15740  0.54960  Biso   1.000  C
  N69      1.0000 0.46425  0.13930  0.57930  Biso   1.000  N
  C206     1.0000 0.43540  0.19920  0.58150  Biso   1.000  C
  N70      1.0000 0.42851  0.27310  0.55740  Biso   1.000  N
  N71      1.0000 0.58680  0.98000  0.54260  Biso   1.000  N
  C207     1.0000 0.57190  0.03290  0.50870  Biso   1.000  C
  H137     1.0000 0.58390  0.03060  0.48310  Biso   1.000  H
  C208     1.0000 0.53960  0.09040  0.50970  Biso   1.000  C
  H138     1.0000 0.52990  0.12780  0.48530  Biso   1.000  H
  C209     1.0000 0.52140  0.09370  0.54630  Biso   1.000  C
  C210     1.0000 0.53690  0.03840  0.58120  Biso   1.000  C
  H139     1.0000 0.52550  0.03890  0.60720  Biso   1.000  H
  C211     1.0000 0.56900  0.98280  0.57700  Biso   1.000  C
  H140     1.0000 0.57900  0.94380  0.60070  Biso   1.000  H
  Zn22     1.0000 0.63895  0.90234  0.54460  Biso   1.000  Zn
  I53      1.0000 0.62545  0.75322  0.57535  Biso   1.000  I
  I54      1.0000 0.66747  0.92909  0.47496  Biso   1.000  I
  N72      1.0000 0.35830  0.16030  0.67610  Biso   1.000  N
  C212     1.0000 0.39250  0.11090  0.67760  Biso   1.000  C
  H141     1.0000 0.39970  0.06880  0.70060  Biso   1.000  H
  C213     1.0000 0.41750  0.11960  0.64640  Biso   1.000  C
  H142     1.0000 0.44050  0.08120  0.64680  Biso   1.000  H
  C214     1.0000 0.40830  0.18600  0.61440  Biso   1.000  C
  C215     1.0000 0.37380  0.23750  0.61350  Biso   1.000  C
  H143     1.0000 0.36650  0.28200  0.59170  Biso   1.000  H
  C216     1.0000 0.34950  0.22300  0.64540  Biso   1.000  C
  H144     1.0000 0.32590  0.25930  0.64510  Biso   1.000  H
  Zn23     1.0000 0.32681  0.14355  0.72697  Biso   1.000  Zn
  I55      1.0000 0.37132  0.16846  0.80152  Biso   1.000  I
  I56      1.0000 0.26201  0.23141  0.69989  Biso   1.000  I
  I57      1.0000 0.34820  0.19970  0.78810  Biso   1.000  I
  I58      1.0000 0.24890  0.22360  0.68280  Biso   1.000  I
  Zn24     1.0000 0.31040  0.15170  0.71230  Biso   1.000  Zn
  I59      1.0000 0.48500  0.63610  0.36820  Biso   1.000  I
  I60      1.0000 0.38460  0.74070  0.43520  Biso   1.000  I
  N73      1.0000 0.81290  0.50990  0.72100  Biso   1.000  N
  C217     1.0000 0.78850  0.47170  0.68760  Biso   1.000  C
  H145     1.0000 0.77490  0.50880  0.66470  Biso   1.000  H
  C218     1.0000 0.78160  0.38010  0.68420  Biso   1.000  C
  H146     1.0000 0.76350  0.35530  0.65980  Biso   1.000  H
  C219     1.0000 0.80220  0.32660  0.71750  Biso   1.000  C
  C220     1.0000 0.82720  0.36730  0.75310  Biso   1.000  C
  H147     1.0000 0.84030  0.33260  0.77730  Biso   1.000  H
  C221     1.0000 0.83260  0.45750  0.75280  Biso   1.000  C
  H148     1.0000 0.85120  0.48410  0.77630  Biso   1.000  H
  C222     1.0000 0.79630  0.22820  0.71760  Biso   1.000  C
  N74      1.0000 0.76820  0.19100  0.68670  Biso   1.000  N
  C223     1.0000 0.76280  0.10460  0.69120  Biso   1.000  C
  N75      1.0000 0.78210  0.05520  0.72510  Biso   1.000  N
  C224     1.0000 0.80980  0.09840  0.75350  Biso   1.000  C
  N76      1.0000 0.81950  0.18420  0.75070  Biso   1.000  N
  N77      1.0000 0.67780  0.96760  0.59360  Biso   1.000  N
  C225     1.0000 0.70230  0.92400  0.62630  Biso   1.000  C
  H149     1.0000 0.70020  0.86090  0.62730  Biso   1.000  H
  C226     1.0000 0.72990  0.96540  0.65790  Biso   1.000  C
  H150     1.0000 0.74690  0.93160  0.68010  Biso   1.000  H
  C227     1.0000 0.73280  0.05690  0.65740  Biso   1.000  C
  C228     1.0000 0.70760  0.10330  0.62450  Biso   1.000  C
  H151     1.0000 0.70850  0.16660  0.62330  Biso   1.000  H
  C229     1.0000 0.68100  0.05500  0.59310  Biso   1.000  C
  H152     1.0000 0.66410  0.08690  0.57010  Biso   1.000  H
  N78      1.0000 0.87710  0.95440  0.86170  Biso   1.000  N
  C230     1.0000 0.88270  0.04130  0.85630  Biso   1.000  C
  H153     1.0000 0.90310  0.07110  0.87680  Biso   1.000  H
  C231     1.0000 0.86050  0.09010  0.82260  Biso   1.000  C
  H154     1.0000 0.86480  0.15260  0.82090  Biso   1.000  H
  C232     1.0000 0.83250  0.04820  0.79190  Biso   1.000  C
  C233     1.0000 0.82580  0.95730  0.79720  Biso   1.000  C
  H155     1.0000 0.80590  0.92610  0.77670  Biso   1.000  H
  C234     1.0000 0.84850  0.91370  0.83270  Biso   1.000  C
  H156     1.0000 0.84350  0.85210  0.83650  Biso   1.000  H
  Zn25     1.0000 0.91929  0.88019  0.90574  Biso   1.000  Zn
  I61      1.0000 0.97585  0.84540  0.86556  Biso   1.000  I
  I62      1.0000 0.88002  0.76630  0.94273  Biso   1.000  I
  N79      1.0000 0.93679  0.98020  0.95184  Biso   1.000  N
  C235     1.0000 0.91350  0.99670  0.98230  Biso   1.000  C
  H157     1.0000 0.89280  0.95490  0.98620  Biso   1.000  H
  C236     1.0000 0.91860  0.07200  0.00770  Biso   1.000  C
  H158     1.0000 0.90110  0.08290  0.02830  Biso   1.000  H
  C237     1.0000 0.94920  0.13120  0.00320  Biso   1.000  C
  C238     1.0000 0.97510  0.11250  0.97380  Biso   1.000  C
  H159     1.0000 0.99710  0.15150  0.97090  Biso   1.000  H
  C239     1.0000 0.96810  0.03580  0.94870  Biso   1.000  C
  H160     1.0000 0.98590  0.02200  0.92880  Biso   1.000  H
  C240     1.0000 0.95390  0.21500  0.02950  Biso   1.000  C
  N80      1.0000 0.98389  0.27240  0.02280  Biso   1.000  N
  C241     1.0000 0.98770  0.34260  0.04960  Biso   1.000  C
  N81      1.0000 0.96425  0.36070  0.07930  Biso   1.000  N
  C242     1.0000 0.93540  0.30080  0.08150  Biso   1.000  C
  N82      1.0000 0.92851  0.22690  0.05740  Biso   1.000  N
  N83      1.0000 0.08680  0.52000  0.04260  Biso   1.000  N
  C243     1.0000 0.07190  0.46710  0.00870  Biso   1.000  C
  H161     1.0000 0.08390  0.46940  0.98310  Biso   1.000  H
  C244     1.0000 0.03960  0.40960  0.00970  Biso   1.000  C
  H162     1.0000 0.02990  0.37220  0.98530  Biso   1.000  H
  C245     1.0000 0.02140  0.40630  0.04630  Biso   1.000  C
  C246     1.0000 0.03690  0.46160  0.08120  Biso   1.000  C
  H163     1.0000 0.02550  0.46110  0.10720  Biso   1.000  H
  C247     1.0000 0.06900  0.51720  0.07700  Biso   1.000  C
  H164     1.0000 0.07900  0.55620  0.10070  Biso   1.000  H
  Zn26     1.0000 0.13895  0.59766  0.04460  Biso   1.000  Zn
  I63      1.0000 0.12545  0.74678  0.07535  Biso   1.000  I
  I64      1.0000 0.16747  0.57091  0.97496  Biso   1.000  I
  N84      1.0000 0.85830  0.33970  0.17610  Biso   1.000  N
  C248     1.0000 0.89250  0.38910  0.17760  Biso   1.000  C
  H165     1.0000 0.89970  0.43120  0.20060  Biso   1.000  H
  C249     1.0000 0.91750  0.38040  0.14640  Biso   1.000  C
  H166     1.0000 0.94050  0.41880  0.14680  Biso   1.000  H
  C250     1.0000 0.90830  0.31400  0.11440  Biso   1.000  C
  C251     1.0000 0.87380  0.26250  0.11350  Biso   1.000  C
  H167     1.0000 0.86650  0.21800  0.09170  Biso   1.000  H
  C252     1.0000 0.84950  0.27700  0.14540  Biso   1.000  C
  H168     1.0000 0.82590  0.24070  0.14510  Biso   1.000  H
  Zn27     1.0000 0.82681  0.35645  0.22697  Biso   1.000  Zn
  I65      1.0000 0.87132  0.33154  0.30152  Biso   1.000  I
  I66      1.0000 0.76201  0.26859  0.19989  Biso   1.000  I
  I67      1.0000 0.84820  0.30030  0.28810  Biso   1.000  I
  I68      1.0000 0.74890  0.27640  0.18280  Biso   1.000  I
  Zn28     1.0000 0.81040  0.34830  0.21230  Biso   1.000  Zn
  I69      1.0000 0.98500  0.86390  0.86820  Biso   1.000  I
  I70      1.0000 0.88460  0.75930  0.93520  Biso   1.000  I
  N85      1.0000 0.31290  0.00990  0.72100  Biso   1.000  N
  C253     1.0000 0.28850  0.97170  0.68760  Biso   1.000  C
  H169     1.0000 0.27490  0.00880  0.66470  Biso   1.000  H
  C254     1.0000 0.28160  0.88010  0.68420  Biso   1.000  C
  H170     1.0000 0.26350  0.85530  0.65980  Biso   1.000  H
  C255     1.0000 0.30220  0.82660  0.71750  Biso   1.000  C
  C256     1.0000 0.32720  0.86730  0.75310  Biso   1.000  C
  H171     1.0000 0.34030  0.83260  0.77730  Biso   1.000  H
  C257     1.0000 0.33260  0.95750  0.75280  Biso   1.000  C
  H172     1.0000 0.35120  0.98410  0.77630  Biso   1.000  H
  C258     1.0000 0.29630  0.72820  0.71760  Biso   1.000  C
  N86      1.0000 0.26820  0.69100  0.68670  Biso   1.000  N
  C259     1.0000 0.26280  0.60460  0.69120  Biso   1.000  C
  N87      1.0000 0.28210  0.55520  0.72510  Biso   1.000  N
  C260     1.0000 0.30980  0.59840  0.75350  Biso   1.000  C
  N88      1.0000 0.31950  0.68420  0.75070  Biso   1.000  N
  N89      1.0000 0.17780  0.46760  0.59360  Biso   1.000  N
  C261     1.0000 0.20230  0.42400  0.62630  Biso   1.000  C
  H173     1.0000 0.20020  0.36090  0.62730  Biso   1.000  H
  C262     1.0000 0.22990  0.46540  0.65790  Biso   1.000  C
  H174     1.0000 0.24690  0.43160  0.68010  Biso   1.000  H
  C263     1.0000 0.23280  0.55690  0.65740  Biso   1.000  C
  C264     1.0000 0.20760  0.60330  0.62450  Biso   1.000  C
  H175     1.0000 0.20850  0.66660  0.62330  Biso   1.000  H
  C265     1.0000 0.18100  0.55500  0.59310  Biso   1.000  C
  H176     1.0000 0.16410  0.58690  0.57010  Biso   1.000  H
  N90      1.0000 0.37710  0.45440  0.86170  Biso   1.000  N
  C266     1.0000 0.38270  0.54130  0.85630  Biso   1.000  C
  H177     1.0000 0.40310  0.57110  0.87680  Biso   1.000  H
  C267     1.0000 0.36050  0.59010  0.82260  Biso   1.000  C
  H178     1.0000 0.36480  0.65260  0.82090  Biso   1.000  H
  C268     1.0000 0.33250  0.54820  0.79190  Biso   1.000  C
  C269     1.0000 0.32580  0.45730  0.79720  Biso   1.000  C
  H179     1.0000 0.30590  0.42610  0.77670  Biso   1.000  H
  C270     1.0000 0.34850  0.41370  0.83270  Biso   1.000  C
  H180     1.0000 0.34350  0.35210  0.83650  Biso   1.000  H
  Zn29     1.0000 0.41929  0.38019  0.90574  Biso   1.000  Zn
  I71      1.0000 0.47585  0.34540  0.86556  Biso   1.000  I
  I72      1.0000 0.38002  0.26630  0.94273  Biso   1.000  I
  N91      1.0000 0.43679  0.48020  0.95184  Biso   1.000  N
  C271     1.0000 0.41350  0.49670  0.98230  Biso   1.000  C
  H181     1.0000 0.39280  0.45490  0.98620  Biso   1.000  H
  C272     1.0000 0.41860  0.57200  0.00770  Biso   1.000  C
  H182     1.0000 0.40110  0.58290  0.02830  Biso   1.000  H
  C273     1.0000 0.44920  0.63120  0.00320  Biso   1.000  C
  C274     1.0000 0.47510  0.61250  0.97380  Biso   1.000  C
  H183     1.0000 0.49710  0.65150  0.97090  Biso   1.000  H
  C275     1.0000 0.46810  0.53580  0.94870  Biso   1.000  C
  H184     1.0000 0.48590  0.52200  0.92880  Biso   1.000  H
  C276     1.0000 0.45390  0.71500  0.02950  Biso   1.000  C
  N92      1.0000 0.48389  0.77240  0.02280  Biso   1.000  N
  C277     1.0000 0.48770  0.84260  0.04960  Biso   1.000  C
  N93      1.0000 0.46425  0.86070  0.07930  Biso   1.000  N
  C278     1.0000 0.43540  0.80080  0.08150  Biso   1.000  C
  N94      1.0000 0.42851  0.72690  0.05740  Biso   1.000  N
  N95      1.0000 0.58680  0.02000  0.04260  Biso   1.000  N
  C279     1.0000 0.57190  0.96710  0.00870  Biso   1.000  C
  H185     1.0000 0.58390  0.96940  0.98310  Biso   1.000  H
  C280     1.0000 0.53960  0.90960  0.00970  Biso   1.000  C
  H186     1.0000 0.52990  0.87220  0.98530  Biso   1.000  H
  C281     1.0000 0.52140  0.90630  0.04630  Biso   1.000  C
  C282     1.0000 0.53690  0.96160  0.08120  Biso   1.000  C
  H187     1.0000 0.52550  0.96110  0.10720  Biso   1.000  H
  C283     1.0000 0.56900  0.01720  0.07700  Biso   1.000  C
  H188     1.0000 0.57900  0.05620  0.10070  Biso   1.000  H
  Zn30     1.0000 0.63895  0.09766  0.04460  Biso   1.000  Zn
  I73      1.0000 0.62545  0.24678  0.07535  Biso   1.000  I
  I74      1.0000 0.66747  0.07091  0.97496  Biso   1.000  I
  N96      1.0000 0.35830  0.83970  0.17610  Biso   1.000  N
  C284     1.0000 0.39250  0.88910  0.17760  Biso   1.000  C
  H189     1.0000 0.39970  0.93120  0.20060  Biso   1.000  H
  C285     1.0000 0.41750  0.88040  0.14640  Biso   1.000  C
  H190     1.0000 0.44050  0.91880  0.14680  Biso   1.000  H
  C286     1.0000 0.40830  0.81400  0.11440  Biso   1.000  C
  C287     1.0000 0.37380  0.76250  0.11350  Biso   1.000  C
  H191     1.0000 0.36650  0.71800  0.09170  Biso   1.000  H
  C288     1.0000 0.34950  0.77700  0.14540  Biso   1.000  C
  H192     1.0000 0.32590  0.74070  0.14510  Biso   1.000  H
  Zn31     1.0000 0.32681  0.85645  0.22697  Biso   1.000  Zn
  I75      1.0000 0.37132  0.83154  0.30152  Biso   1.000  I
  I76      1.0000 0.26201  0.76859  0.19989  Biso   1.000  I
  I77      1.0000 0.34820  0.80030  0.28810  Biso   1.000  I
  I78      1.0000 0.24890  0.77640  0.18280  Biso   1.000  I
  Zn32     1.0000 0.31040  0.84830  0.21230  Biso   1.000  Zn
  I79      1.0000 0.48500  0.36390  0.86820  Biso   1.000  I
  I80      1.0000 0.38460  0.25930  0.93520  Biso   1.000  I
