data_image0
_cell_length_a       34.7076
_cell_length_b       15.0136
_cell_length_c       29.9475
_cell_angle_alpha    90
_cell_angle_beta     100.783
_cell_angle_gamma    90

_symmetry_space_group_name_H-M    "P 1"
_symmetry_int_tables_number       1

loop_
  _symmetry_equiv_pos_as_xyz
  'x, y, z'

loop_
  _atom_site_label
  _atom_site_occupancy
  _atom_site_fract_x
  _atom_site_fract_y
  _atom_site_fract_z
  _atom_site_thermal_displace_type
  _atom_site_B_iso_or_equiv
  _atom_site_type_symbol
  Zn1      1.0000 0.63196  0.40599  0.54837  Biso   1.000  Zn
  I1       1.0000 0.61987  0.26016  0.57576  Biso   1.000  I
  I2       1.0000 0.66107  0.43660  0.47095  Biso   1.000  I
  Zn2      1.0000 0.42080  0.12734  0.40668  Biso   1.000  Zn
  I3       1.0000 0.38406  0.23940  0.44604  Biso   1.000  I
  I4       1.0000 0.47529  0.15633  0.36301  Biso   1.000  I
  Zn3      1.0000 0.33040  0.36200  0.23390  Biso   1.000  Zn
  I5       1.0000 0.37629  0.34680  0.30833  Biso   1.000  I
  I6       1.0000 0.26977  0.26672  0.20845  Biso   1.000  I
  N1       1.0000 0.58348  0.48690  0.54715  Biso   1.000  N
  C1       1.0000 0.56917  0.49690  0.58460  Biso   1.000  C
  H1       1.0000 0.58130  0.46530  0.61100  Biso   1.000  H
  C2       1.0000 0.53780  0.55030  0.58760  Biso   1.000  C
  H2       1.0000 0.52800  0.55440  0.61510  Biso   1.000  H
  C3       1.0000 0.52066  0.59840  0.54949  Biso   1.000  C
  C4       1.0000 0.53573  0.59060  0.51090  Biso   1.000  C
  H3       1.0000 0.52480  0.62370  0.48450  Biso   1.000  H
  C5       1.0000 0.56729  0.53360  0.51029  Biso   1.000  C
  H4       1.0000 0.57760  0.52780  0.48320  Biso   1.000  H
  N2       1.0000 0.43937  0.02590  0.45311  Biso   1.000  N
  C6       1.0000 0.41881  0.01020  0.48572  Biso   1.000  C
  H5       1.0000 0.39980  0.05260  0.49080  Biso   1.000  H
  C7       1.0000 0.42409  0.93460  0.51231  Biso   1.000  C
  H6       1.0000 0.40900  0.92550  0.53540  Biso   1.000  H
  C8       1.0000 0.45160  0.87200  0.50504  Biso   1.000  C
  C9       1.0000 0.47408  0.89020  0.47267  Biso   1.000  C
  H7       1.0000 0.49390  0.84990  0.46770  Biso   1.000  H
  C10      1.0000 0.46733  0.96770  0.44760  Biso   1.000  C
  H8       1.0000 0.48310  0.98020  0.42560  Biso   1.000  H
  N3       1.0000 0.36182  0.65320  0.67845  Biso   1.000  N
  C11      1.0000 0.35250  0.71410  0.64570  Biso   1.000  C
  H9       1.0000 0.32850  0.74600  0.64330  Biso   1.000  H
  C12      1.0000 0.37680  0.73180  0.61510  Biso   1.000  C
  H10      1.0000 0.36990  0.77620  0.59250  Biso   1.000  H
  C13      1.0000 0.41128  0.68440  0.61790  Biso   1.000  C
  C14      1.0000 0.41962  0.62040  0.65080  Biso   1.000  C
  H11      1.0000 0.44300  0.58620  0.65360  Biso   1.000  H
  C15      1.0000 0.39390  0.60610  0.67970  Biso   1.000  C
  H12      1.0000 0.39960  0.56000  0.70170  Biso   1.000  H
  C16      1.0000 0.48794  0.65980  0.55249  Biso   1.000  C
  N4       1.0000 0.48406  0.73130  0.52489  Biso   1.000  N
  C17      1.0000 0.45594  0.78750  0.53151  Biso   1.000  C
  N5       1.0000 0.43151  0.77560  0.56050  Biso   1.000  N
  C18      1.0000 0.43755  0.70070  0.58491  Biso   1.000  C
  N6       1.0000 0.46578  0.64150  0.58306  Biso   1.000  N
  N7       1.0000 0.37952  0.05510  0.36122  Biso   1.000  N
  C19      1.0000 0.35157  0.09590  0.33205  Biso   1.000  C
  H13      1.0000 0.34780  0.15800  0.33550  Biso   1.000  H
  C20      1.0000 0.32770  0.05160  0.29686  Biso   1.000  C
  H14      1.0000 0.30820  0.08300  0.27640  Biso   1.000  H
  C21      1.0000 0.33261  0.96160  0.29187  Biso   1.000  C
  C22      1.0000 0.36098  0.91910  0.32290  Biso   1.000  C
  H15      1.0000 0.36480  0.85660  0.32100  Biso   1.000  H
  C23      1.0000 0.38356  0.96830  0.35660  Biso   1.000  C
  H16      1.0000 0.40310  0.93840  0.37770  Biso   1.000  H
  N8       1.0000 0.31544  0.49870  0.22227  Biso   1.000  N
  C24      1.0000 0.28726  0.53300  0.19190  Biso   1.000  C
  H17      1.0000 0.27140  0.49390  0.17130  Biso   1.000  H
  C25      1.0000 0.27941  0.62470  0.18830  Biso   1.000  C
  H18      1.0000 0.25860  0.64700  0.16590  Biso   1.000  H
  C26      1.0000 0.30236  0.68100  0.21757  Biso   1.000  C
  C27      1.0000 0.33238  0.64440  0.24900  Biso   1.000  C
  H19      1.0000 0.34900  0.68140  0.27000  Biso   1.000  H
  C28      1.0000 0.33800  0.55340  0.24960  Biso   1.000  C
  H20      1.0000 0.35920  0.52920  0.27080  Biso   1.000  H
  N9       1.0000 0.17236  0.03230  0.09780  Biso   1.000  N
  C29      1.0000 0.19427  0.07650  0.13210  Biso   1.000  C
  H21      1.0000 0.18970  0.13840  0.13520  Biso   1.000  H
  C30      1.0000 0.22315  0.03620  0.16300  Biso   1.000  C
  H22      1.0000 0.23830  0.07000  0.18680  Biso   1.000  H
  C31      1.0000 0.22996  0.94660  0.15933  Biso   1.000  C
  C32      1.0000 0.20697  0.89960  0.12425  Biso   1.000  C
  H23      1.0000 0.21040  0.83730  0.12110  Biso   1.000  H
  C33      1.0000 0.17910  0.94540  0.09417  Biso   1.000  C
  H24      1.0000 0.16390  0.91350  0.06960  Biso   1.000  H
  C34      1.0000 0.30910  0.90940  0.25390  Biso   1.000  C
  N10      1.0000 0.31850  0.82420  0.25106  Biso   1.000  N
  C35      1.0000 0.29561  0.77910  0.21778  Biso   1.000  C
  N11      1.0000 0.26686  0.81440  0.18657  Biso   1.000  N
  C36      1.0000 0.26099  0.90100  0.19240  Biso   1.000  C
  N12      1.0000 0.28047  0.95183  0.22610  Biso   1.000  N
  I7       1.0000 0.61026  0.25610  0.58850  Biso   1.000  I
  I8       1.0000 0.64979  0.42080  0.47920  Biso   1.000  I
  Zn4      1.0000 0.32600  0.36480  0.22260  Biso   1.000  Zn
  I9       1.0000 0.36680  0.33730  0.30220  Biso   1.000  I
  I10      1.0000 0.26310  0.28000  0.19410  Biso   1.000  I
  Zn5      1.0000 0.31320  0.36340  0.20610  Biso   1.000  Zn
  I11      1.0000 0.35280  0.32190  0.28510  Biso   1.000  I
  I12      1.0000 0.25020  0.28590  0.17210  Biso   1.000  I
  Zn6      1.0000 0.13196  0.90599  0.54837  Biso   1.000  Zn
  I13      1.0000 0.11987  0.76016  0.57576  Biso   1.000  I
  I14      1.0000 0.16107  0.93660  0.47095  Biso   1.000  I
  Zn7      1.0000 0.92080  0.62734  0.40668  Biso   1.000  Zn
  I15      1.0000 0.88406  0.73940  0.44604  Biso   1.000  I
  I16      1.0000 0.97529  0.65633  0.36301  Biso   1.000  I
  Zn8      1.0000 0.83040  0.86200  0.23390  Biso   1.000  Zn
  I17      1.0000 0.87629  0.84680  0.30833  Biso   1.000  I
  I18      1.0000 0.76977  0.76672  0.20845  Biso   1.000  I
  N13      1.0000 0.08348  0.98690  0.54715  Biso   1.000  N
  C37      1.0000 0.06917  0.99690  0.58460  Biso   1.000  C
  H25      1.0000 0.08130  0.96530  0.61100  Biso   1.000  H
  C38      1.0000 0.03780  0.05030  0.58760  Biso   1.000  C
  H26      1.0000 0.02800  0.05440  0.61510  Biso   1.000  H
  C39      1.0000 0.02066  0.09840  0.54949  Biso   1.000  C
  C40      1.0000 0.03573  0.09060  0.51090  Biso   1.000  C
  H27      1.0000 0.02480  0.12370  0.48450  Biso   1.000  H
  C41      1.0000 0.06729  0.03360  0.51029  Biso   1.000  C
  H28      1.0000 0.07760  0.02780  0.48320  Biso   1.000  H
  N14      1.0000 0.93937  0.52590  0.45311  Biso   1.000  N
  C42      1.0000 0.91881  0.51020  0.48572  Biso   1.000  C
  H29      1.0000 0.89980  0.55260  0.49080  Biso   1.000  H
  C43      1.0000 0.92409  0.43460  0.51231  Biso   1.000  C
  H30      1.0000 0.90900  0.42550  0.53540  Biso   1.000  H
  C44      1.0000 0.95160  0.37200  0.50504  Biso   1.000  C
  C45      1.0000 0.97408  0.39020  0.47267  Biso   1.000  C
  H31      1.0000 0.99390  0.34990  0.46770  Biso   1.000  H
  C46      1.0000 0.96733  0.46770  0.44760  Biso   1.000  C
  H32      1.0000 0.98310  0.48020  0.42560  Biso   1.000  H
  N15      1.0000 0.86182  0.15320  0.67845  Biso   1.000  N
  C47      1.0000 0.85250  0.21410  0.64570  Biso   1.000  C
  H33      1.0000 0.82850  0.24600  0.64330  Biso   1.000  H
  C48      1.0000 0.87680  0.23180  0.61510  Biso   1.000  C
  H34      1.0000 0.86990  0.27620  0.59250  Biso   1.000  H
  C49      1.0000 0.91128  0.18440  0.61790  Biso   1.000  C
  C50      1.0000 0.91962  0.12040  0.65080  Biso   1.000  C
  H35      1.0000 0.94300  0.08620  0.65360  Biso   1.000  H
  C51      1.0000 0.89390  0.10610  0.67970  Biso   1.000  C
  H36      1.0000 0.89960  0.06000  0.70170  Biso   1.000  H
  C52      1.0000 0.98794  0.15980  0.55249  Biso   1.000  C
  N16      1.0000 0.98406  0.23130  0.52489  Biso   1.000  N
  C53      1.0000 0.95594  0.28750  0.53151  Biso   1.000  C
  N17      1.0000 0.93151  0.27560  0.56050  Biso   1.000  N
  C54      1.0000 0.93755  0.20070  0.58491  Biso   1.000  C
  N18      1.0000 0.96578  0.14150  0.58306  Biso   1.000  N
  N19      1.0000 0.87952  0.55510  0.36122  Biso   1.000  N
  C55      1.0000 0.85157  0.59590  0.33205  Biso   1.000  C
  H37      1.0000 0.84780  0.65800  0.33550  Biso   1.000  H
  C56      1.0000 0.82770  0.55160  0.29686  Biso   1.000  C
  H38      1.0000 0.80820  0.58300  0.27640  Biso   1.000  H
  C57      1.0000 0.83261  0.46160  0.29187  Biso   1.000  C
  C58      1.0000 0.86098  0.41910  0.32290  Biso   1.000  C
  H39      1.0000 0.86480  0.35660  0.32100  Biso   1.000  H
  C59      1.0000 0.88356  0.46830  0.35660  Biso   1.000  C
  H40      1.0000 0.90310  0.43840  0.37770  Biso   1.000  H
  N20      1.0000 0.81544  0.99870  0.22227  Biso   1.000  N
  C60      1.0000 0.78726  0.03300  0.19190  Biso   1.000  C
  H41      1.0000 0.77140  0.99390  0.17130  Biso   1.000  H
  C61      1.0000 0.77941  0.12470  0.18830  Biso   1.000  C
  H42      1.0000 0.75860  0.14700  0.16590  Biso   1.000  H
  C62      1.0000 0.80236  0.18100  0.21757  Biso   1.000  C
  C63      1.0000 0.83238  0.14440  0.24900  Biso   1.000  C
  H43      1.0000 0.84900  0.18140  0.27000  Biso   1.000  H
  C64      1.0000 0.83800  0.05340  0.24960  Biso   1.000  C
  H44      1.0000 0.85920  0.02920  0.27080  Biso   1.000  H
  N21      1.0000 0.67236  0.53230  0.09780  Biso   1.000  N
  C65      1.0000 0.69427  0.57650  0.13210  Biso   1.000  C
  H45      1.0000 0.68970  0.63840  0.13520  Biso   1.000  H
  C66      1.0000 0.72315  0.53620  0.16300  Biso   1.000  C
  H46      1.0000 0.73830  0.57000  0.18680  Biso   1.000  H
  C67      1.0000 0.72996  0.44660  0.15933  Biso   1.000  C
  C68      1.0000 0.70697  0.39960  0.12425  Biso   1.000  C
  H47      1.0000 0.71040  0.33730  0.12110  Biso   1.000  H
  C69      1.0000 0.67910  0.44540  0.09417  Biso   1.000  C
  H48      1.0000 0.66390  0.41350  0.06960  Biso   1.000  H
  C70      1.0000 0.80910  0.40940  0.25390  Biso   1.000  C
  N22      1.0000 0.81850  0.32420  0.25106  Biso   1.000  N
  C71      1.0000 0.79561  0.27910  0.21778  Biso   1.000  C
  N23      1.0000 0.76686  0.31440  0.18657  Biso   1.000  N
  C72      1.0000 0.76099  0.40100  0.19240  Biso   1.000  C
  N24      1.0000 0.78047  0.45183  0.22610  Biso   1.000  N
  I19      1.0000 0.11026  0.75610  0.58850  Biso   1.000  I
  I20      1.0000 0.14979  0.92080  0.47920  Biso   1.000  I
  Zn9      1.0000 0.82600  0.86480  0.22260  Biso   1.000  Zn
  I21      1.0000 0.86680  0.83730  0.30220  Biso   1.000  I
  I22      1.0000 0.76310  0.78000  0.19410  Biso   1.000  I
  Zn10     1.0000 0.81320  0.86340  0.20610  Biso   1.000  Zn
  I23      1.0000 0.85280  0.82190  0.28510  Biso   1.000  I
  I24      1.0000 0.75020  0.78590  0.17210  Biso   1.000  I
  Zn11     1.0000 0.63196  0.59401  0.04837  Biso   1.000  Zn
  I25      1.0000 0.61987  0.73984  0.07576  Biso   1.000  I
  I26      1.0000 0.66107  0.56340  0.97095  Biso   1.000  I
  Zn12     1.0000 0.42080  0.87266  0.90668  Biso   1.000  Zn
  I27      1.0000 0.38406  0.76060  0.94604  Biso   1.000  I
  I28      1.0000 0.47529  0.84367  0.86301  Biso   1.000  I
  Zn13     1.0000 0.33040  0.63800  0.73390  Biso   1.000  Zn
  I29      1.0000 0.37629  0.65320  0.80833  Biso   1.000  I
  I30      1.0000 0.26977  0.73328  0.70845  Biso   1.000  I
  N25      1.0000 0.58348  0.51310  0.04715  Biso   1.000  N
  C73      1.0000 0.56917  0.50310  0.08460  Biso   1.000  C
  H49      1.0000 0.58130  0.53470  0.11100  Biso   1.000  H
  C74      1.0000 0.53780  0.44970  0.08760  Biso   1.000  C
  H50      1.0000 0.52800  0.44560  0.11510  Biso   1.000  H
  C75      1.0000 0.52066  0.40160  0.04949  Biso   1.000  C
  C76      1.0000 0.53573  0.40940  0.01090  Biso   1.000  C
  H51      1.0000 0.52480  0.37630  0.98450  Biso   1.000  H
  C77      1.0000 0.56729  0.46640  0.01029  Biso   1.000  C
  H52      1.0000 0.57760  0.47220  0.98320  Biso   1.000  H
  N26      1.0000 0.43937  0.97410  0.95311  Biso   1.000  N
  C78      1.0000 0.41881  0.98980  0.98572  Biso   1.000  C
  H53      1.0000 0.39980  0.94740  0.99080  Biso   1.000  H
  C79      1.0000 0.42409  0.06540  0.01231  Biso   1.000  C
  H54      1.0000 0.40900  0.07450  0.03540  Biso   1.000  H
  C80      1.0000 0.45160  0.12800  0.00504  Biso   1.000  C
  C81      1.0000 0.47408  0.10980  0.97267  Biso   1.000  C
  H55      1.0000 0.49390  0.15010  0.96770  Biso   1.000  H
  C82      1.0000 0.46733  0.03230  0.94760  Biso   1.000  C
  H56      1.0000 0.48310  0.01980  0.92560  Biso   1.000  H
  N27      1.0000 0.36182  0.34680  0.17845  Biso   1.000  N
  C83      1.0000 0.35250  0.28590  0.14570  Biso   1.000  C
  H57      1.0000 0.32850  0.25400  0.14330  Biso   1.000  H
  C84      1.0000 0.37680  0.26820  0.11510  Biso   1.000  C
  H58      1.0000 0.36990  0.22380  0.09250  Biso   1.000  H
  C85      1.0000 0.41128  0.31560  0.11790  Biso   1.000  C
  C86      1.0000 0.41962  0.37960  0.15080  Biso   1.000  C
  H59      1.0000 0.44300  0.41380  0.15360  Biso   1.000  H
  C87      1.0000 0.39390  0.39390  0.17970  Biso   1.000  C
  H60      1.0000 0.39960  0.44000  0.20170  Biso   1.000  H
  C88      1.0000 0.48794  0.34020  0.05249  Biso   1.000  C
  N28      1.0000 0.48406  0.26870  0.02489  Biso   1.000  N
  C89      1.0000 0.45594  0.21250  0.03151  Biso   1.000  C
  N29      1.0000 0.43151  0.22440  0.06050  Biso   1.000  N
  C90      1.0000 0.43755  0.29930  0.08491  Biso   1.000  C
  N30      1.0000 0.46578  0.35850  0.08306  Biso   1.000  N
  N31      1.0000 0.37952  0.94490  0.86122  Biso   1.000  N
  C91      1.0000 0.35157  0.90410  0.83205  Biso   1.000  C
  H61      1.0000 0.34780  0.84200  0.83550  Biso   1.000  H
  C92      1.0000 0.32770  0.94840  0.79686  Biso   1.000  C
  H62      1.0000 0.30820  0.91700  0.77640  Biso   1.000  H
  C93      1.0000 0.33261  0.03840  0.79187  Biso   1.000  C
  C94      1.0000 0.36098  0.08090  0.82290  Biso   1.000  C
  H63      1.0000 0.36480  0.14340  0.82100  Biso   1.000  H
  C95      1.0000 0.38356  0.03170  0.85660  Biso   1.000  C
  H64      1.0000 0.40310  0.06160  0.87770  Biso   1.000  H
  N32      1.0000 0.31544  0.50130  0.72227  Biso   1.000  N
  C96      1.0000 0.28726  0.46700  0.69190  Biso   1.000  C
  H65      1.0000 0.27140  0.50610  0.67130  Biso   1.000  H
  C97      1.0000 0.27941  0.37530  0.68830  Biso   1.000  C
  H66      1.0000 0.25860  0.35300  0.66590  Biso   1.000  H
  C98      1.0000 0.30236  0.31900  0.71757  Biso   1.000  C
  C99      1.0000 0.33238  0.35560  0.74900  Biso   1.000  C
  H67      1.0000 0.34900  0.31860  0.77000  Biso   1.000  H
  C100     1.0000 0.33800  0.44660  0.74960  Biso   1.000  C
  H68      1.0000 0.35920  0.47080  0.77080  Biso   1.000  H
  N33      1.0000 0.17236  0.96770  0.59780  Biso   1.000  N
  C101     1.0000 0.19427  0.92350  0.63210  Biso   1.000  C
  H69      1.0000 0.18970  0.86160  0.63520  Biso   1.000  H
  C102     1.0000 0.22315  0.96380  0.66300  Biso   1.000  C
  H70      1.0000 0.23830  0.93000  0.68680  Biso   1.000  H
  C103     1.0000 0.22996  0.05340  0.65933  Biso   1.000  C
  C104     1.0000 0.20697  0.10040  0.62425  Biso   1.000  C
  H71      1.0000 0.21040  0.16270  0.62110  Biso   1.000  H
  C105     1.0000 0.17910  0.05460  0.59417  Biso   1.000  C
  H72      1.0000 0.16390  0.08650  0.56960  Biso   1.000  H
  C106     1.0000 0.30910  0.09060  0.75390  Biso   1.000  C
  N34      1.0000 0.31850  0.17580  0.75106  Biso   1.000  N
  C107     1.0000 0.29561  0.22090  0.71778  Biso   1.000  C
  N35      1.0000 0.26686  0.18560  0.68657  Biso   1.000  N
  C108     1.0000 0.26099  0.09900  0.69240  Biso   1.000  C
  N36      1.0000 0.28047  0.04817  0.72610  Biso   1.000  N
  I31      1.0000 0.61026  0.74390  0.08850  Biso   1.000  I
  I32      1.0000 0.64979  0.57920  0.97920  Biso   1.000  I
  Zn14     1.0000 0.32600  0.63520  0.72260  Biso   1.000  Zn
  I33      1.0000 0.36680  0.66270  0.80220  Biso   1.000  I
  I34      1.0000 0.26310  0.72000  0.69410  Biso   1.000  I
  Zn15     1.0000 0.31320  0.63660  0.70610  Biso   1.000  Zn
  I35      1.0000 0.35280  0.67810  0.78510  Biso   1.000  I
  I36      1.0000 0.25020  0.71410  0.67210  Biso   1.000  I
  Zn16     1.0000 0.13196  0.09401  0.04837  Biso   1.000  Zn
  I37      1.0000 0.11987  0.23984  0.07576  Biso   1.000  I
  I38      1.0000 0.16107  0.06340  0.97095  Biso   1.000  I
  Zn17     1.0000 0.92080  0.37266  0.90668  Biso   1.000  Zn
  I39      1.0000 0.88406  0.26060  0.94604  Biso   1.000  I
  I40      1.0000 0.97529  0.34367  0.86301  Biso   1.000  I
  Zn18     1.0000 0.83040  0.13800  0.73390  Biso   1.000  Zn
  I41      1.0000 0.87629  0.15320  0.80833  Biso   1.000  I
  I42      1.0000 0.76977  0.23328  0.70845  Biso   1.000  I
  N37      1.0000 0.08348  0.01310  0.04715  Biso   1.000  N
  C109     1.0000 0.06917  0.00310  0.08460  Biso   1.000  C
  H73      1.0000 0.08130  0.03470  0.11100  Biso   1.000  H
  C110     1.0000 0.03780  0.94970  0.08760  Biso   1.000  C
  H74      1.0000 0.02800  0.94560  0.11510  Biso   1.000  H
  C111     1.0000 0.02066  0.90160  0.04949  Biso   1.000  C
  C112     1.0000 0.03573  0.90940  0.01090  Biso   1.000  C
  H75      1.0000 0.02480  0.87630  0.98450  Biso   1.000  H
  C113     1.0000 0.06729  0.96640  0.01029  Biso   1.000  C
  H76      1.0000 0.07760  0.97220  0.98320  Biso   1.000  H
  N38      1.0000 0.93937  0.47410  0.95311  Biso   1.000  N
  C114     1.0000 0.91881  0.48980  0.98572  Biso   1.000  C
  H77      1.0000 0.89980  0.44740  0.99080  Biso   1.000  H
  C115     1.0000 0.92409  0.56540  0.01231  Biso   1.000  C
  H78      1.0000 0.90900  0.57450  0.03540  Biso   1.000  H
  C116     1.0000 0.95160  0.62800  0.00504  Biso   1.000  C
  C117     1.0000 0.97408  0.60980  0.97267  Biso   1.000  C
  H79      1.0000 0.99390  0.65010  0.96770  Biso   1.000  H
  C118     1.0000 0.96733  0.53230  0.94760  Biso   1.000  C
  H80      1.0000 0.98310  0.51980  0.92560  Biso   1.000  H
  N39      1.0000 0.86182  0.84680  0.17845  Biso   1.000  N
  C119     1.0000 0.85250  0.78590  0.14570  Biso   1.000  C
  H81      1.0000 0.82850  0.75400  0.14330  Biso   1.000  H
  C120     1.0000 0.87680  0.76820  0.11510  Biso   1.000  C
  H82      1.0000 0.86990  0.72380  0.09250  Biso   1.000  H
  C121     1.0000 0.91128  0.81560  0.11790  Biso   1.000  C
  C122     1.0000 0.91962  0.87960  0.15080  Biso   1.000  C
  H83      1.0000 0.94300  0.91380  0.15360  Biso   1.000  H
  C123     1.0000 0.89390  0.89390  0.17970  Biso   1.000  C
  H84      1.0000 0.89960  0.94000  0.20170  Biso   1.000  H
  C124     1.0000 0.98794  0.84020  0.05249  Biso   1.000  C
  N40      1.0000 0.98406  0.76870  0.02489  Biso   1.000  N
  C125     1.0000 0.95594  0.71250  0.03151  Biso   1.000  C
  N41      1.0000 0.93151  0.72440  0.06050  Biso   1.000  N
  C126     1.0000 0.93755  0.79930  0.08491  Biso   1.000  C
  N42      1.0000 0.96578  0.85850  0.08306  Biso   1.000  N
  N43      1.0000 0.87952  0.44490  0.86122  Biso   1.000  N
  C127     1.0000 0.85157  0.40410  0.83205  Biso   1.000  C
  H85      1.0000 0.84780  0.34200  0.83550  Biso   1.000  H
  C128     1.0000 0.82770  0.44840  0.79686  Biso   1.000  C
  H86      1.0000 0.80820  0.41700  0.77640  Biso   1.000  H
  C129     1.0000 0.83261  0.53840  0.79187  Biso   1.000  C
  C130     1.0000 0.86098  0.58090  0.82290  Biso   1.000  C
  H87      1.0000 0.86480  0.64340  0.82100  Biso   1.000  H
  C131     1.0000 0.88356  0.53170  0.85660  Biso   1.000  C
  H88      1.0000 0.90310  0.56160  0.87770  Biso   1.000  H
  N44      1.0000 0.81544  0.00130  0.72227  Biso   1.000  N
  C132     1.0000 0.78726  0.96700  0.69190  Biso   1.000  C
  H89      1.0000 0.77140  0.00610  0.67130  Biso   1.000  H
  C133     1.0000 0.77941  0.87530  0.68830  Biso   1.000  C
  H90      1.0000 0.75860  0.85300  0.66590  Biso   1.000  H
  C134     1.0000 0.80236  0.81900  0.71757  Biso   1.000  C
  C135     1.0000 0.83238  0.85560  0.74900  Biso   1.000  C
  H91      1.0000 0.84900  0.81860  0.77000  Biso   1.000  H
  C136     1.0000 0.83800  0.94660  0.74960  Biso   1.000  C
  H92      1.0000 0.85920  0.97080  0.77080  Biso   1.000  H
  N45      1.0000 0.67236  0.46770  0.59780  Biso   1.000  N
  C137     1.0000 0.69427  0.42350  0.63210  Biso   1.000  C
  H93      1.0000 0.68970  0.36160  0.63520  Biso   1.000  H
  C138     1.0000 0.72315  0.46380  0.66300  Biso   1.000  C
  H94      1.0000 0.73830  0.43000  0.68680  Biso   1.000  H
  C139     1.0000 0.72996  0.55340  0.65933  Biso   1.000  C
  C140     1.0000 0.70697  0.60040  0.62425  Biso   1.000  C
  H95      1.0000 0.71040  0.66270  0.62110  Biso   1.000  H
  C141     1.0000 0.67910  0.55460  0.59417  Biso   1.000  C
  H96      1.0000 0.66390  0.58650  0.56960  Biso   1.000  H
  C142     1.0000 0.80910  0.59060  0.75390  Biso   1.000  C
  N46      1.0000 0.81850  0.67580  0.75106  Biso   1.000  N
  C143     1.0000 0.79561  0.72090  0.71778  Biso   1.000  C
  N47      1.0000 0.76686  0.68560  0.68657  Biso   1.000  N
  C144     1.0000 0.76099  0.59900  0.69240  Biso   1.000  C
  N48      1.0000 0.78047  0.54817  0.72610  Biso   1.000  N
  I43      1.0000 0.11026  0.24390  0.08850  Biso   1.000  I
  I44      1.0000 0.14979  0.07920  0.97920  Biso   1.000  I
  Zn19     1.0000 0.82600  0.13520  0.72260  Biso   1.000  Zn
  I45      1.0000 0.86680  0.16270  0.80220  Biso   1.000  I
  I46      1.0000 0.76310  0.22000  0.69410  Biso   1.000  I
  Zn20     1.0000 0.81320  0.13660  0.70610  Biso   1.000  Zn
  I47      1.0000 0.85280  0.17810  0.78510  Biso   1.000  I
  I48      1.0000 0.75020  0.21410  0.67210  Biso   1.000  I
  Zn21     1.0000 0.36804  0.40599  0.95163  Biso   1.000  Zn
  I49      1.0000 0.38013  0.26016  0.92424  Biso   1.000  I
  I50      1.0000 0.33893  0.43660  0.02905  Biso   1.000  I
  Zn22     1.0000 0.57920  0.12734  0.09332  Biso   1.000  Zn
  I51      1.0000 0.61594  0.23940  0.05396  Biso   1.000  I
  I52      1.0000 0.52471  0.15633  0.13699  Biso   1.000  I
  Zn23     1.0000 0.66960  0.36200  0.26610  Biso   1.000  Zn
  I53      1.0000 0.62371  0.34680  0.19167  Biso   1.000  I
  I54      1.0000 0.73023  0.26672  0.29155  Biso   1.000  I
  N49      1.0000 0.41652  0.48690  0.95285  Biso   1.000  N
  C145     1.0000 0.43083  0.49690  0.91540  Biso   1.000  C
  H97      1.0000 0.41870  0.46530  0.88900  Biso   1.000  H
  C146     1.0000 0.46220  0.55030  0.91240  Biso   1.000  C
  H98      1.0000 0.47200  0.55440  0.88490  Biso   1.000  H
  C147     1.0000 0.47934  0.59840  0.95051  Biso   1.000  C
  C148     1.0000 0.46427  0.59060  0.98910  Biso   1.000  C
  H99      1.0000 0.47520  0.62370  0.01550  Biso   1.000  H
  C149     1.0000 0.43271  0.53360  0.98971  Biso   1.000  C
  H100     1.0000 0.42240  0.52780  0.01680  Biso   1.000  H
  N50      1.0000 0.56063  0.02590  0.04689  Biso   1.000  N
  C150     1.0000 0.58119  0.01020  0.01428  Biso   1.000  C
  H101     1.0000 0.60020  0.05260  0.00920  Biso   1.000  H
  C151     1.0000 0.57591  0.93460  0.98769  Biso   1.000  C
  H102     1.0000 0.59100  0.92550  0.96460  Biso   1.000  H
  C152     1.0000 0.54840  0.87200  0.99496  Biso   1.000  C
  C153     1.0000 0.52592  0.89020  0.02733  Biso   1.000  C
  H103     1.0000 0.50610  0.84990  0.03230  Biso   1.000  H
  C154     1.0000 0.53267  0.96770  0.05240  Biso   1.000  C
  H104     1.0000 0.51690  0.98020  0.07440  Biso   1.000  H
  N51      1.0000 0.63818  0.65320  0.82155  Biso   1.000  N
  C155     1.0000 0.64750  0.71410  0.85430  Biso   1.000  C
  H105     1.0000 0.67150  0.74600  0.85670  Biso   1.000  H
  C156     1.0000 0.62320  0.73180  0.88490  Biso   1.000  C
  H106     1.0000 0.63010  0.77620  0.90750  Biso   1.000  H
  C157     1.0000 0.58872  0.68440  0.88210  Biso   1.000  C
  C158     1.0000 0.58038  0.62040  0.84920  Biso   1.000  C
  H107     1.0000 0.55700  0.58620  0.84640  Biso   1.000  H
  C159     1.0000 0.60610  0.60610  0.82030  Biso   1.000  C
  H108     1.0000 0.60040  0.56000  0.79830  Biso   1.000  H
  C160     1.0000 0.51206  0.65980  0.94751  Biso   1.000  C
  N52      1.0000 0.51594  0.73130  0.97511  Biso   1.000  N
  C161     1.0000 0.54406  0.78750  0.96849  Biso   1.000  C
  N53      1.0000 0.56849  0.77560  0.93950  Biso   1.000  N
  C162     1.0000 0.56245  0.70070  0.91509  Biso   1.000  C
  N54      1.0000 0.53422  0.64150  0.91694  Biso   1.000  N
  N55      1.0000 0.62048  0.05510  0.13878  Biso   1.000  N
  C163     1.0000 0.64843  0.09590  0.16795  Biso   1.000  C
  H109     1.0000 0.65220  0.15800  0.16450  Biso   1.000  H
  C164     1.0000 0.67230  0.05160  0.20314  Biso   1.000  C
  H110     1.0000 0.69180  0.08300  0.22360  Biso   1.000  H
  C165     1.0000 0.66739  0.96160  0.20813  Biso   1.000  C
  C166     1.0000 0.63902  0.91910  0.17710  Biso   1.000  C
  H111     1.0000 0.63520  0.85660  0.17900  Biso   1.000  H
  C167     1.0000 0.61644  0.96830  0.14340  Biso   1.000  C
  H112     1.0000 0.59690  0.93840  0.12230  Biso   1.000  H
  N56      1.0000 0.68456  0.49870  0.27773  Biso   1.000  N
  C168     1.0000 0.71274  0.53300  0.30810  Biso   1.000  C
  H113     1.0000 0.72860  0.49390  0.32870  Biso   1.000  H
  C169     1.0000 0.72059  0.62470  0.31170  Biso   1.000  C
  H114     1.0000 0.74140  0.64700  0.33410  Biso   1.000  H
  C170     1.0000 0.69764  0.68100  0.28243  Biso   1.000  C
  C171     1.0000 0.66762  0.64440  0.25100  Biso   1.000  C
  H115     1.0000 0.65100  0.68140  0.23000  Biso   1.000  H
  C172     1.0000 0.66200  0.55340  0.25040  Biso   1.000  C
  H116     1.0000 0.64080  0.52920  0.22920  Biso   1.000  H
  N57      1.0000 0.82764  0.03230  0.40220  Biso   1.000  N
  C173     1.0000 0.80573  0.07650  0.36790  Biso   1.000  C
  H117     1.0000 0.81030  0.13840  0.36480  Biso   1.000  H
  C174     1.0000 0.77685  0.03620  0.33700  Biso   1.000  C
  H118     1.0000 0.76170  0.07000  0.31320  Biso   1.000  H
  C175     1.0000 0.77004  0.94660  0.34067  Biso   1.000  C
  C176     1.0000 0.79303  0.89960  0.37575  Biso   1.000  C
  H119     1.0000 0.78960  0.83730  0.37890  Biso   1.000  H
  C177     1.0000 0.82090  0.94540  0.40583  Biso   1.000  C
  H120     1.0000 0.83610  0.91350  0.43040  Biso   1.000  H
  C178     1.0000 0.69090  0.90940  0.24610  Biso   1.000  C
  N58      1.0000 0.68150  0.82420  0.24894  Biso   1.000  N
  C179     1.0000 0.70439  0.77910  0.28222  Biso   1.000  C
  N59      1.0000 0.73314  0.81440  0.31343  Biso   1.000  N
  C180     1.0000 0.73901  0.90100  0.30760  Biso   1.000  C
  N60      1.0000 0.71953  0.95183  0.27390  Biso   1.000  N
  I55      1.0000 0.38974  0.25610  0.91150  Biso   1.000  I
  I56      1.0000 0.35021  0.42080  0.02080  Biso   1.000  I
  Zn24     1.0000 0.67400  0.36480  0.27740  Biso   1.000  Zn
  I57      1.0000 0.63320  0.33730  0.19780  Biso   1.000  I
  I58      1.0000 0.73690  0.28000  0.30590  Biso   1.000  I
  Zn25     1.0000 0.68680  0.36340  0.29390  Biso   1.000  Zn
  I59      1.0000 0.64720  0.32190  0.21490  Biso   1.000  I
  I60      1.0000 0.74980  0.28590  0.32790  Biso   1.000  I
  Zn26     1.0000 0.86804  0.90599  0.95163  Biso   1.000  Zn
  I61      1.0000 0.88013  0.76016  0.92424  Biso   1.000  I
  I62      1.0000 0.83893  0.93660  0.02905  Biso   1.000  I
  Zn27     1.0000 0.07920  0.62734  0.09332  Biso   1.000  Zn
  I63      1.0000 0.11594  0.73940  0.05396  Biso   1.000  I
  I64      1.0000 0.02471  0.65633  0.13699  Biso   1.000  I
  Zn28     1.0000 0.16960  0.86200  0.26610  Biso   1.000  Zn
  I65      1.0000 0.12371  0.84680  0.19167  Biso   1.000  I
  I66      1.0000 0.23023  0.76672  0.29155  Biso   1.000  I
  N61      1.0000 0.91652  0.98690  0.95285  Biso   1.000  N
  C181     1.0000 0.93083  0.99690  0.91540  Biso   1.000  C
  H121     1.0000 0.91870  0.96530  0.88900  Biso   1.000  H
  C182     1.0000 0.96220  0.05030  0.91240  Biso   1.000  C
  H122     1.0000 0.97200  0.05440  0.88490  Biso   1.000  H
  C183     1.0000 0.97934  0.09840  0.95051  Biso   1.000  C
  C184     1.0000 0.96427  0.09060  0.98910  Biso   1.000  C
  H123     1.0000 0.97520  0.12370  0.01550  Biso   1.000  H
  C185     1.0000 0.93271  0.03360  0.98971  Biso   1.000  C
  H124     1.0000 0.92240  0.02780  0.01680  Biso   1.000  H
  N62      1.0000 0.06063  0.52590  0.04689  Biso   1.000  N
  C186     1.0000 0.08119  0.51020  0.01428  Biso   1.000  C
  H125     1.0000 0.10020  0.55260  0.00920  Biso   1.000  H
  C187     1.0000 0.07591  0.43460  0.98769  Biso   1.000  C
  H126     1.0000 0.09100  0.42550  0.96460  Biso   1.000  H
  C188     1.0000 0.04840  0.37200  0.99496  Biso   1.000  C
  C189     1.0000 0.02592  0.39020  0.02733  Biso   1.000  C
  H127     1.0000 0.00610  0.34990  0.03230  Biso   1.000  H
  C190     1.0000 0.03267  0.46770  0.05240  Biso   1.000  C
  H128     1.0000 0.01690  0.48020  0.07440  Biso   1.000  H
  N63      1.0000 0.13818  0.15320  0.82155  Biso   1.000  N
  C191     1.0000 0.14750  0.21410  0.85430  Biso   1.000  C
  H129     1.0000 0.17150  0.24600  0.85670  Biso   1.000  H
  C192     1.0000 0.12320  0.23180  0.88490  Biso   1.000  C
  H130     1.0000 0.13010  0.27620  0.90750  Biso   1.000  H
  C193     1.0000 0.08872  0.18440  0.88210  Biso   1.000  C
  C194     1.0000 0.08038  0.12040  0.84920  Biso   1.000  C
  H131     1.0000 0.05700  0.08620  0.84640  Biso   1.000  H
  C195     1.0000 0.10610  0.10610  0.82030  Biso   1.000  C
  H132     1.0000 0.10040  0.06000  0.79830  Biso   1.000  H
  C196     1.0000 0.01206  0.15980  0.94751  Biso   1.000  C
  N64      1.0000 0.01594  0.23130  0.97511  Biso   1.000  N
  C197     1.0000 0.04406  0.28750  0.96849  Biso   1.000  C
  N65      1.0000 0.06849  0.27560  0.93950  Biso   1.000  N
  C198     1.0000 0.06245  0.20070  0.91509  Biso   1.000  C
  N66      1.0000 0.03422  0.14150  0.91694  Biso   1.000  N
  N67      1.0000 0.12048  0.55510  0.13878  Biso   1.000  N
  C199     1.0000 0.14843  0.59590  0.16795  Biso   1.000  C
  H133     1.0000 0.15220  0.65800  0.16450  Biso   1.000  H
  C200     1.0000 0.17230  0.55160  0.20314  Biso   1.000  C
  H134     1.0000 0.19180  0.58300  0.22360  Biso   1.000  H
  C201     1.0000 0.16739  0.46160  0.20813  Biso   1.000  C
  C202     1.0000 0.13902  0.41910  0.17710  Biso   1.000  C
  H135     1.0000 0.13520  0.35660  0.17900  Biso   1.000  H
  C203     1.0000 0.11644  0.46830  0.14340  Biso   1.000  C
  H136     1.0000 0.09690  0.43840  0.12230  Biso   1.000  H
  N68      1.0000 0.18456  0.99870  0.27773  Biso   1.000  N
  C204     1.0000 0.21274  0.03300  0.30810  Biso   1.000  C
  H137     1.0000 0.22860  0.99390  0.32870  Biso   1.000  H
  C205     1.0000 0.22059  0.12470  0.31170  Biso   1.000  C
  H138     1.0000 0.24140  0.14700  0.33410  Biso   1.000  H
  C206     1.0000 0.19764  0.18100  0.28243  Biso   1.000  C
  C207     1.0000 0.16762  0.14440  0.25100  Biso   1.000  C
  H139     1.0000 0.15100  0.18140  0.23000  Biso   1.000  H
  C208     1.0000 0.16200  0.05340  0.25040  Biso   1.000  C
  H140     1.0000 0.14080  0.02920  0.22920  Biso   1.000  H
  N69      1.0000 0.32764  0.53230  0.40220  Biso   1.000  N
  C209     1.0000 0.30573  0.57650  0.36790  Biso   1.000  C
  H141     1.0000 0.31030  0.63840  0.36480  Biso   1.000  H
  C210     1.0000 0.27685  0.53620  0.33700  Biso   1.000  C
  H142     1.0000 0.26170  0.57000  0.31320  Biso   1.000  H
  C211     1.0000 0.27004  0.44660  0.34067  Biso   1.000  C
  C212     1.0000 0.29303  0.39960  0.37575  Biso   1.000  C
  H143     1.0000 0.28960  0.33730  0.37890  Biso   1.000  H
  C213     1.0000 0.32090  0.44540  0.40583  Biso   1.000  C
  H144     1.0000 0.33610  0.41350  0.43040  Biso   1.000  H
  C214     1.0000 0.19090  0.40940  0.24610  Biso   1.000  C
  N70      1.0000 0.18150  0.32420  0.24894  Biso   1.000  N
  C215     1.0000 0.20439  0.27910  0.28222  Biso   1.000  C
  N71      1.0000 0.23314  0.31440  0.31343  Biso   1.000  N
  C216     1.0000 0.23901  0.40100  0.30760  Biso   1.000  C
  N72      1.0000 0.21953  0.45183  0.27390  Biso   1.000  N
  I67      1.0000 0.88974  0.75610  0.91150  Biso   1.000  I
  I68      1.0000 0.85021  0.92080  0.02080  Biso   1.000  I
  Zn29     1.0000 0.17400  0.86480  0.27740  Biso   1.000  Zn
  I69      1.0000 0.13320  0.83730  0.19780  Biso   1.000  I
  I70      1.0000 0.23690  0.78000  0.30590  Biso   1.000  I
  Zn30     1.0000 0.18680  0.86340  0.29390  Biso   1.000  Zn
  I71      1.0000 0.14720  0.82190  0.21490  Biso   1.000  I
  I72      1.0000 0.24980  0.78590  0.32790  Biso   1.000  I
  Zn31     1.0000 0.36804  0.59401  0.45163  Biso   1.000  Zn
  I73      1.0000 0.38013  0.73984  0.42424  Biso   1.000  I
  I74      1.0000 0.33893  0.56340  0.52905  Biso   1.000  I
  Zn32     1.0000 0.57920  0.87266  0.59332  Biso   1.000  Zn
  I75      1.0000 0.61594  0.76060  0.55396  Biso   1.000  I
  I76      1.0000 0.52471  0.84367  0.63699  Biso   1.000  I
  Zn33     1.0000 0.66960  0.63800  0.76610  Biso   1.000  Zn
  I77      1.0000 0.62371  0.65320  0.69167  Biso   1.000  I
  I78      1.0000 0.73023  0.73328  0.79155  Biso   1.000  I
  N73      1.0000 0.41652  0.51310  0.45285  Biso   1.000  N
  C217     1.0000 0.43083  0.50310  0.41540  Biso   1.000  C
  H145     1.0000 0.41870  0.53470  0.38900  Biso   1.000  H
  C218     1.0000 0.46220  0.44970  0.41240  Biso   1.000  C
  H146     1.0000 0.47200  0.44560  0.38490  Biso   1.000  H
  C219     1.0000 0.47934  0.40160  0.45051  Biso   1.000  C
  C220     1.0000 0.46427  0.40940  0.48910  Biso   1.000  C
  H147     1.0000 0.47520  0.37630  0.51550  Biso   1.000  H
  C221     1.0000 0.43271  0.46640  0.48971  Biso   1.000  C
  H148     1.0000 0.42240  0.47220  0.51680  Biso   1.000  H
  N74      1.0000 0.56063  0.97410  0.54689  Biso   1.000  N
  C222     1.0000 0.58119  0.98980  0.51428  Biso   1.000  C
  H149     1.0000 0.60020  0.94740  0.50920  Biso   1.000  H
  C223     1.0000 0.57591  0.06540  0.48769  Biso   1.000  C
  H150     1.0000 0.59100  0.07450  0.46460  Biso   1.000  H
  C224     1.0000 0.54840  0.12800  0.49496  Biso   1.000  C
  C225     1.0000 0.52592  0.10980  0.52733  Biso   1.000  C
  H151     1.0000 0.50610  0.15010  0.53230  Biso   1.000  H
  C226     1.0000 0.53267  0.03230  0.55240  Biso   1.000  C
  H152     1.0000 0.51690  0.01980  0.57440  Biso   1.000  H
  N75      1.0000 0.63818  0.34680  0.32155  Biso   1.000  N
  C227     1.0000 0.64750  0.28590  0.35430  Biso   1.000  C
  H153     1.0000 0.67150  0.25400  0.35670  Biso   1.000  H
  C228     1.0000 0.62320  0.26820  0.38490  Biso   1.000  C
  H154     1.0000 0.63010  0.22380  0.40750  Biso   1.000  H
  C229     1.0000 0.58872  0.31560  0.38210  Biso   1.000  C
  C230     1.0000 0.58038  0.37960  0.34920  Biso   1.000  C
  H155     1.0000 0.55700  0.41380  0.34640  Biso   1.000  H
  C231     1.0000 0.60610  0.39390  0.32030  Biso   1.000  C
  H156     1.0000 0.60040  0.44000  0.29830  Biso   1.000  H
  C232     1.0000 0.51206  0.34020  0.44751  Biso   1.000  C
  N76      1.0000 0.51594  0.26870  0.47511  Biso   1.000  N
  C233     1.0000 0.54406  0.21250  0.46849  Biso   1.000  C
  N77      1.0000 0.56849  0.22440  0.43950  Biso   1.000  N
  C234     1.0000 0.56245  0.29930  0.41509  Biso   1.000  C
  N78      1.0000 0.53422  0.35850  0.41694  Biso   1.000  N
  N79      1.0000 0.62048  0.94490  0.63878  Biso   1.000  N
  C235     1.0000 0.64843  0.90410  0.66795  Biso   1.000  C
  H157     1.0000 0.65220  0.84200  0.66450  Biso   1.000  H
  C236     1.0000 0.67230  0.94840  0.70314  Biso   1.000  C
  H158     1.0000 0.69180  0.91700  0.72360  Biso   1.000  H
  C237     1.0000 0.66739  0.03840  0.70813  Biso   1.000  C
  C238     1.0000 0.63902  0.08090  0.67710  Biso   1.000  C
  H159     1.0000 0.63520  0.14340  0.67900  Biso   1.000  H
  C239     1.0000 0.61644  0.03170  0.64340  Biso   1.000  C
  H160     1.0000 0.59690  0.06160  0.62230  Biso   1.000  H
  N80      1.0000 0.68456  0.50130  0.77773  Biso   1.000  N
  C240     1.0000 0.71274  0.46700  0.80810  Biso   1.000  C
  H161     1.0000 0.72860  0.50610  0.82870  Biso   1.000  H
  C241     1.0000 0.72059  0.37530  0.81170  Biso   1.000  C
  H162     1.0000 0.74140  0.35300  0.83410  Biso   1.000  H
  C242     1.0000 0.69764  0.31900  0.78243  Biso   1.000  C
  C243     1.0000 0.66762  0.35560  0.75100  Biso   1.000  C
  H163     1.0000 0.65100  0.31860  0.73000  Biso   1.000  H
  C244     1.0000 0.66200  0.44660  0.75040  Biso   1.000  C
  H164     1.0000 0.64080  0.47080  0.72920  Biso   1.000  H
  N81      1.0000 0.82764  0.96770  0.90220  Biso   1.000  N
  C245     1.0000 0.80573  0.92350  0.86790  Biso   1.000  C
  H165     1.0000 0.81030  0.86160  0.86480  Biso   1.000  H
  C246     1.0000 0.77685  0.96380  0.83700  Biso   1.000  C
  H166     1.0000 0.76170  0.93000  0.81320  Biso   1.000  H
  C247     1.0000 0.77004  0.05340  0.84067  Biso   1.000  C
  C248     1.0000 0.79303  0.10040  0.87575  Biso   1.000  C
  H167     1.0000 0.78960  0.16270  0.87890  Biso   1.000  H
  C249     1.0000 0.82090  0.05460  0.90583  Biso   1.000  C
  H168     1.0000 0.83610  0.08650  0.93040  Biso   1.000  H
  C250     1.0000 0.69090  0.09060  0.74610  Biso   1.000  C
  N82      1.0000 0.68150  0.17580  0.74894  Biso   1.000  N
  C251     1.0000 0.70439  0.22090  0.78222  Biso   1.000  C
  N83      1.0000 0.73314  0.18560  0.81343  Biso   1.000  N
  C252     1.0000 0.73901  0.09900  0.80760  Biso   1.000  C
  N84      1.0000 0.71953  0.04817  0.77390  Biso   1.000  N
  I79      1.0000 0.38974  0.74390  0.41150  Biso   1.000  I
  I80      1.0000 0.35021  0.57920  0.52080  Biso   1.000  I
  Zn34     1.0000 0.67400  0.63520  0.77740  Biso   1.000  Zn
  I81      1.0000 0.63320  0.66270  0.69780  Biso   1.000  I
  I82      1.0000 0.73690  0.72000  0.80590  Biso   1.000  I
  Zn35     1.0000 0.68680  0.63660  0.79390  Biso   1.000  Zn
  I83      1.0000 0.64720  0.67810  0.71490  Biso   1.000  I
  I84      1.0000 0.74980  0.71410  0.82790  Biso   1.000  I
  Zn36     1.0000 0.86804  0.09401  0.45163  Biso   1.000  Zn
  I85      1.0000 0.88013  0.23984  0.42424  Biso   1.000  I
  I86      1.0000 0.83893  0.06340  0.52905  Biso   1.000  I
  Zn37     1.0000 0.07920  0.37266  0.59332  Biso   1.000  Zn
  I87      1.0000 0.11594  0.26060  0.55396  Biso   1.000  I
  I88      1.0000 0.02471  0.34367  0.63699  Biso   1.000  I
  Zn38     1.0000 0.16960  0.13800  0.76610  Biso   1.000  Zn
  I89      1.0000 0.12371  0.15320  0.69167  Biso   1.000  I
  I90      1.0000 0.23023  0.23328  0.79155  Biso   1.000  I
  N85      1.0000 0.91652  0.01310  0.45285  Biso   1.000  N
  C253     1.0000 0.93083  0.00310  0.41540  Biso   1.000  C
  H169     1.0000 0.91870  0.03470  0.38900  Biso   1.000  H
  C254     1.0000 0.96220  0.94970  0.41240  Biso   1.000  C
  H170     1.0000 0.97200  0.94560  0.38490  Biso   1.000  H
  C255     1.0000 0.97934  0.90160  0.45051  Biso   1.000  C
  C256     1.0000 0.96427  0.90940  0.48910  Biso   1.000  C
  H171     1.0000 0.97520  0.87630  0.51550  Biso   1.000  H
  C257     1.0000 0.93271  0.96640  0.48971  Biso   1.000  C
  H172     1.0000 0.92240  0.97220  0.51680  Biso   1.000  H
  N86      1.0000 0.06063  0.47410  0.54689  Biso   1.000  N
  C258     1.0000 0.08119  0.48980  0.51428  Biso   1.000  C
  H173     1.0000 0.10020  0.44740  0.50920  Biso   1.000  H
  C259     1.0000 0.07591  0.56540  0.48769  Biso   1.000  C
  H174     1.0000 0.09100  0.57450  0.46460  Biso   1.000  H
  C260     1.0000 0.04840  0.62800  0.49496  Biso   1.000  C
  C261     1.0000 0.02592  0.60980  0.52733  Biso   1.000  C
  H175     1.0000 0.00610  0.65010  0.53230  Biso   1.000  H
  C262     1.0000 0.03267  0.53230  0.55240  Biso   1.000  C
  H176     1.0000 0.01690  0.51980  0.57440  Biso   1.000  H
  N87      1.0000 0.13818  0.84680  0.32155  Biso   1.000  N
  C263     1.0000 0.14750  0.78590  0.35430  Biso   1.000  C
  H177     1.0000 0.17150  0.75400  0.35670  Biso   1.000  H
  C264     1.0000 0.12320  0.76820  0.38490  Biso   1.000  C
  H178     1.0000 0.13010  0.72380  0.40750  Biso   1.000  H
  C265     1.0000 0.08872  0.81560  0.38210  Biso   1.000  C
  C266     1.0000 0.08038  0.87960  0.34920  Biso   1.000  C
  H179     1.0000 0.05700  0.91380  0.34640  Biso   1.000  H
  C267     1.0000 0.10610  0.89390  0.32030  Biso   1.000  C
  H180     1.0000 0.10040  0.94000  0.29830  Biso   1.000  H
  C268     1.0000 0.01206  0.84020  0.44751  Biso   1.000  C
  N88      1.0000 0.01594  0.76870  0.47511  Biso   1.000  N
  C269     1.0000 0.04406  0.71250  0.46849  Biso   1.000  C
  N89      1.0000 0.06849  0.72440  0.43950  Biso   1.000  N
  C270     1.0000 0.06245  0.79930  0.41509  Biso   1.000  C
  N90      1.0000 0.03422  0.85850  0.41694  Biso   1.000  N
  N91      1.0000 0.12048  0.44490  0.63878  Biso   1.000  N
  C271     1.0000 0.14843  0.40410  0.66795  Biso   1.000  C
  H181     1.0000 0.15220  0.34200  0.66450  Biso   1.000  H
  C272     1.0000 0.17230  0.44840  0.70314  Biso   1.000  C
  H182     1.0000 0.19180  0.41700  0.72360  Biso   1.000  H
  C273     1.0000 0.16739  0.53840  0.70813  Biso   1.000  C
  C274     1.0000 0.13902  0.58090  0.67710  Biso   1.000  C
  H183     1.0000 0.13520  0.64340  0.67900  Biso   1.000  H
  C275     1.0000 0.11644  0.53170  0.64340  Biso   1.000  C
  H184     1.0000 0.09690  0.56160  0.62230  Biso   1.000  H
  N92      1.0000 0.18456  0.00130  0.77773  Biso   1.000  N
  C276     1.0000 0.21274  0.96700  0.80810  Biso   1.000  C
  H185     1.0000 0.22860  0.00610  0.82870  Biso   1.000  H
  C277     1.0000 0.22059  0.87530  0.81170  Biso   1.000  C
  H186     1.0000 0.24140  0.85300  0.83410  Biso   1.000  H
  C278     1.0000 0.19764  0.81900  0.78243  Biso   1.000  C
  C279     1.0000 0.16762  0.85560  0.75100  Biso   1.000  C
  H187     1.0000 0.15100  0.81860  0.73000  Biso   1.000  H
  C280     1.0000 0.16200  0.94660  0.75040  Biso   1.000  C
  H188     1.0000 0.14080  0.97080  0.72920  Biso   1.000  H
  N93      1.0000 0.32764  0.46770  0.90220  Biso   1.000  N
  C281     1.0000 0.30573  0.42350  0.86790  Biso   1.000  C
  H189     1.0000 0.31030  0.36160  0.86480  Biso   1.000  H
  C282     1.0000 0.27685  0.46380  0.83700  Biso   1.000  C
  H190     1.0000 0.26170  0.43000  0.81320  Biso   1.000  H
  C283     1.0000 0.27004  0.55340  0.84067  Biso   1.000  C
  C284     1.0000 0.29303  0.60040  0.87575  Biso   1.000  C
  H191     1.0000 0.28960  0.66270  0.87890  Biso   1.000  H
  C285     1.0000 0.32090  0.55460  0.90583  Biso   1.000  C
  H192     1.0000 0.33610  0.58650  0.93040  Biso   1.000  H
  C286     1.0000 0.19090  0.59060  0.74610  Biso   1.000  C
  N94      1.0000 0.18150  0.67580  0.74894  Biso   1.000  N
  C287     1.0000 0.20439  0.72090  0.78222  Biso   1.000  C
  N95      1.0000 0.23314  0.68560  0.81343  Biso   1.000  N
  C288     1.0000 0.23901  0.59900  0.80760  Biso   1.000  C
  N96      1.0000 0.21953  0.54817  0.77390  Biso   1.000  N
  I91      1.0000 0.88974  0.24390  0.41150  Biso   1.000  I
  I92      1.0000 0.85021  0.07920  0.52080  Biso   1.000  I
  Zn39     1.0000 0.17400  0.13520  0.77740  Biso   1.000  Zn
  I93      1.0000 0.13320  0.16270  0.69780  Biso   1.000  I
  I94      1.0000 0.23690  0.22000  0.80590  Biso   1.000  I
  Zn40     1.0000 0.18680  0.13660  0.79390  Biso   1.000  Zn
  I95      1.0000 0.14720  0.17810  0.71490  Biso   1.000  I
  I96      1.0000 0.24980  0.21410  0.82790  Biso   1.000  I
