data_image0
_cell_length_a       34.814
_cell_length_b       14.9103
_cell_length_c       30.057
_cell_angle_alpha    90
_cell_angle_beta     101.5
_cell_angle_gamma    90

_symmetry_space_group_name_H-M    "P 1"
_symmetry_int_tables_number       1

loop_
  _symmetry_equiv_pos_as_xyz
  'x, y, z'

loop_
  _atom_site_label
  _atom_site_occupancy
  _atom_site_fract_x
  _atom_site_fract_y
  _atom_site_fract_z
  _atom_site_thermal_displace_type
  _atom_site_B_iso_or_equiv
  _atom_site_type_symbol
  Zn1      1.0000 0.12962  0.10469  0.80386  Biso   1.000  Zn
  Zn2      1.0000 0.91995  0.83147  0.65813  Biso   1.000  Zn
  Zn3      1.0000 0.82627  0.06432  0.47708  Biso   1.000  Zn
  Zn4      1.0000 0.62889  0.80550  0.30203  Biso   1.000  Zn
  Zn5      1.0000 0.42184  0.07343  0.16046  Biso   1.000  Zn
  I1       1.0000 0.61520  0.95102  0.33630  Biso   1.000  I
  I2       1.0000 0.65229  0.78309  0.22902  Biso   1.000  I
  I3       1.0000 0.38533  0.96113  0.19928  Biso   1.000  I
  I4       1.0000 0.47535  0.04686  0.11605  Biso   1.000  I
  Zn6      1.0000 0.32900  0.84110  0.98140  Biso   1.000  Zn
  I5       1.0000 0.37311  0.86520  0.05787  Biso   1.000  I
  I6       1.0000 0.26750  0.93090  0.95280  Biso   1.000  I
  I7       1.0000 0.11079  0.96276  0.84079  Biso   1.000  I
  I8       1.0000 0.15283  0.11270  0.72990  Biso   1.000  I
  I9       1.0000 0.97386  0.85740  0.61373  Biso   1.000  I
  I10      1.0000 0.88320  0.94360  0.69760  Biso   1.000  I
  I11      1.0000 0.87154  0.04750  0.55780  Biso   1.000  I
  I12      1.0000 0.76680  0.97260  0.45180  Biso   1.000  I
  N1       1.0000 0.31740  0.70560  0.97680  Biso   1.000  N
  C1       1.0000 0.28570  0.67020  0.94640  Biso   1.000  C
  H1       1.0000 0.26800  0.70970  0.92760  Biso   1.000  H
  C2       1.0000 0.27930  0.57840  0.94270  Biso   1.000  C
  H2       1.0000 0.25850  0.55580  0.92000  Biso   1.000  H
  C3       1.0000 0.30320  0.51850  0.97210  Biso   1.000  C
  C4       1.0000 0.33560  0.55840  0.00250  Biso   1.000  C
  H3       1.0000 0.35370  0.52150  0.02220  Biso   1.000  H
  C5       1.0000 0.34050  0.64940  0.00330  Biso   1.000  C
  H4       1.0000 0.36200  0.67360  0.02440  Biso   1.000  H
  N2       1.0000 0.17140  0.16910  0.85180  Biso   1.000  N
  C6       1.0000 0.17920  0.25860  0.84690  Biso   1.000  C
  H5       1.0000 0.16470  0.29020  0.82160  Biso   1.000  H
  C7       1.0000 0.20700  0.30340  0.87690  Biso   1.000  C
  H6       1.0000 0.21020  0.36630  0.87400  Biso   1.000  H
  C8       1.0000 0.23120  0.25580  0.91240  Biso   1.000  C
  C9       1.0000 0.22250  0.16360  0.91620  Biso   1.000  C
  H7       1.0000 0.23740  0.12920  0.94020  Biso   1.000  H
  C10      1.0000 0.19280  0.12300  0.88600  Biso   1.000  C
  H8       1.0000 0.18740  0.06130  0.88950  Biso   1.000  H
  N3       1.0000 0.38120  0.14670  0.11490  Biso   1.000  N
  C11      1.0000 0.38730  0.22880  0.10690  Biso   1.000  C
  H9       1.0000 0.40770  0.25960  0.12690  Biso   1.000  H
  C12      1.0000 0.36550  0.27600  0.06990  Biso   1.000  C
  H10      1.0000 0.37320  0.33500  0.06350  Biso   1.000  H
  C13      1.0000 0.33510  0.24000  0.04460  Biso   1.000  C
  C14      1.0000 0.32760  0.15230  0.05210  Biso   1.000  C
  H11      1.0000 0.30740  0.12170  0.03180  Biso   1.000  H
  C15      1.0000 0.34940  0.10690  0.08950  Biso   1.000  C
  H12      1.0000 0.34180  0.04850  0.09710  Biso   1.000  H
  C16      1.0000 0.29820  0.42060  0.97270  Biso   1.000  C
  N4       1.0000 0.26770  0.38880  0.93950  Biso   1.000  N
  C17      1.0000 0.26170  0.30080  0.94470  Biso   1.000  C
  N5       1.0000 0.28200  0.25020  0.97800  Biso   1.000  N
  C18      1.0000 0.31120  0.29140  0.00650  Biso   1.000  C
  N6       1.0000 0.32090  0.37680  0.00170  Biso   1.000  N
  N7       1.0000 0.08230  0.19010  0.80050  Biso   1.000  N
  C19      1.0000 0.06500  0.23470  0.76410  Biso   1.000  C
  H13      1.0000 0.07450  0.22710  0.73680  Biso   1.000  H
  C20      1.0000 0.03450  0.29090  0.76380  Biso   1.000  C
  H14      1.0000 0.02430  0.32610  0.73780  Biso   1.000  H
  C21      1.0000 0.01860  0.29580  0.80230  Biso   1.000  C
  C22      1.0000 0.03290  0.24840  0.84010  Biso   1.000  C
  H15      1.0000 0.02120  0.24960  0.86610  Biso   1.000  H
  C23      1.0000 0.06630  0.19710  0.83800  Biso   1.000  C
  H16      1.0000 0.07850  0.16540  0.86450  Biso   1.000  H
  N8       1.0000 0.93800  0.72900  0.70400  Biso   1.000  N
  C24      1.0000 0.91420  0.71050  0.73480  Biso   1.000  C
  H17      1.0000 0.89410  0.75200  0.73760  Biso   1.000  H
  C25      1.0000 0.91840  0.63410  0.76160  Biso   1.000  C
  H18      1.0000 0.90200  0.62390  0.78280  Biso   1.000  H
  C26      1.0000 0.94820  0.57070  0.75640  Biso   1.000  C
  C27      1.0000 0.97340  0.59370  0.72680  Biso   1.000  C
  H19      1.0000 0.99470  0.55560  0.72440  Biso   1.000  H
  C28      1.0000 0.96700  0.67280  0.70080  Biso   1.000  C
  H20      1.0000 0.98390  0.68640  0.68040  Biso   1.000  H
  N9       1.0000 0.86240  0.35690  0.93130  Biso   1.000  N
  C29      1.0000 0.85350  0.41520  0.89820  Biso   1.000  C
  H21      1.0000 0.82970  0.44760  0.89580  Biso   1.000  H
  C30      1.0000 0.87520  0.43220  0.86790  Biso   1.000  C
  H22      1.0000 0.86670  0.47440  0.84440  Biso   1.000  H
  C31      1.0000 0.91160  0.38670  0.87080  Biso   1.000  C
  C32      1.0000 0.91900  0.32400  0.90280  Biso   1.000  C
  H23      1.0000 0.94190  0.28820  0.90560  Biso   1.000  H
  C33      1.0000 0.89360  0.31040  0.93220  Biso   1.000  C
  H24      1.0000 0.89960  0.26410  0.95420  Biso   1.000  H
  C34      1.0000 0.98480  0.36240  0.80570  Biso   1.000  C
  N10      1.0000 0.98170  0.43180  0.77670  Biso   1.000  N
  C35      1.0000 0.95310  0.48450  0.78340  Biso   1.000  C
  N11      1.0000 0.92900  0.47750  0.81320  Biso   1.000  N
  C36      1.0000 0.93590  0.40220  0.83900  Biso   1.000  C
  N12      1.0000 0.96280  0.34140  0.83620  Biso   1.000  N
  N13      1.0000 0.87880  0.76130  0.61220  Biso   1.000  N
  C37      1.0000 0.85050  0.79910  0.58390  Biso   1.000  C
  H25      1.0000 0.84710  0.86200  0.58680  Biso   1.000  H
  C38      1.0000 0.82490  0.75550  0.55030  Biso   1.000  C
  H26      1.0000 0.80280  0.78610  0.53340  Biso   1.000  H
  C39      1.0000 0.83150  0.66570  0.54120  Biso   1.000  C
  C40      1.0000 0.86100  0.62420  0.57300  Biso   1.000  C
  H27      1.0000 0.86520  0.56140  0.57100  Biso   1.000  H
  C41      1.0000 0.88320  0.67090  0.60560  Biso   1.000  C
  H28      1.0000 0.90340  0.64020  0.62570  Biso   1.000  H
  N14      1.0000 0.66930  0.73910  0.35030  Biso   1.000  N
  C42      1.0000 0.69050  0.77880  0.38690  Biso   1.000  C
  H29      1.0000 0.68560  0.84040  0.39160  Biso   1.000  H
  C43      1.0000 0.71870  0.73750  0.41780  Biso   1.000  C
  H30      1.0000 0.73300  0.76960  0.44310  Biso   1.000  H
  C44      1.0000 0.72620  0.64990  0.41180  Biso   1.000  C
  C45      1.0000 0.70460  0.60840  0.37470  Biso   1.000  C
  H31      1.0000 0.70940  0.54700  0.36920  Biso   1.000  H
  C46      1.0000 0.67660  0.65330  0.34590  Biso   1.000  C
  H32      1.0000 0.66140  0.62160  0.32110  Biso   1.000  H
  N15      1.0000 0.81440  0.20150  0.47060  Biso   1.000  N
  C47      1.0000 0.83890  0.25550  0.49790  Biso   1.000  C
  H33      1.0000 0.86070  0.23180  0.51880  Biso   1.000  H
  C48      1.0000 0.83190  0.34840  0.49520  Biso   1.000  C
  H34      1.0000 0.84910  0.38720  0.51500  Biso   1.000  H
  C49      1.0000 0.80290  0.38290  0.46680  Biso   1.000  C
  C50      1.0000 0.77730  0.32650  0.43940  Biso   1.000  C
  H35      1.0000 0.75530  0.34880  0.41850  Biso   1.000  H
  C51      1.0000 0.78530  0.23450  0.44370  Biso   1.000  C
  H36      1.0000 0.76770  0.19450  0.42530  Biso   1.000  H
  C52      1.0000 0.80800  0.61490  0.50490  Biso   1.000  C
  N16      1.0000 0.77860  0.65610  0.47770  Biso   1.000  N
  C53      1.0000 0.75880  0.60530  0.44430  Biso   1.000  C
  N17      1.0000 0.76530  0.51850  0.43750  Biso   1.000  N
  C54      1.0000 0.79450  0.48320  0.46680  Biso   1.000  C
  N18      1.0000 0.81720  0.52850  0.50220  Biso   1.000  N
  N19      1.0000 0.58020  0.72650  0.30010  Biso   1.000  N
  C55      1.0000 0.56630  0.67030  0.26500  Biso   1.000  C
  H37      1.0000 0.57830  0.67160  0.23920  Biso   1.000  H
  C56      1.0000 0.53560  0.61120  0.26480  Biso   1.000  C
  H38      1.0000 0.52680  0.57380  0.23920  Biso   1.000  H
  C57      1.0000 0.51790  0.60680  0.30160  Biso   1.000  C
  C58      1.0000 0.53470  0.66500  0.33730  Biso   1.000  C
  H39      1.0000 0.52510  0.66170  0.36460  Biso   1.000  H
  C59      1.0000 0.56400  0.72500  0.33530  Biso   1.000  C
  H40      1.0000 0.57220  0.76620  0.35960  Biso   1.000  H
  N20      1.0000 0.43930  0.17500  0.20760  Biso   1.000  N
  C60      1.0000 0.46530  0.23950  0.20020  Biso   1.000  C
  H41      1.0000 0.47970  0.22900  0.17700  Biso   1.000  H
  C61      1.0000 0.47170  0.31600  0.22330  Biso   1.000  C
  H42      1.0000 0.48930  0.35990  0.21610  Biso   1.000  H
  C62      1.0000 0.45220  0.32860  0.25760  Biso   1.000  C
  C63      1.0000 0.42760  0.26310  0.26780  Biso   1.000  C
  H43      1.0000 0.41470  0.26970  0.29260  Biso   1.000  H
  C64      1.0000 0.42230  0.18990  0.24170  Biso   1.000  C
  H44      1.0000 0.40470  0.14540  0.24850  Biso   1.000  H
  N21      1.0000 0.36020  0.54580  0.43020  Biso   1.000  N
  C65      1.0000 0.39260  0.59540  0.43180  Biso   1.000  C
  H45      1.0000 0.39810  0.64100  0.45430  Biso   1.000  H
  C66      1.0000 0.41780  0.58510  0.40390  Biso   1.000  C
  H46      1.0000 0.44010  0.62280  0.40630  Biso   1.000  H
  C67      1.0000 0.41030  0.51470  0.36950  Biso   1.000  C
  C68      1.0000 0.37920  0.46220  0.36810  Biso   1.000  C
  H47      1.0000 0.37470  0.41280  0.34780  Biso   1.000  H
  C69      1.0000 0.35160  0.48190  0.39880  Biso   1.000  C
  H48      1.0000 0.32790  0.44890  0.39600  Biso   1.000  H
  C70      1.0000 0.48680  0.54650  0.30420  Biso   1.000  C
  N22      1.0000 0.48170  0.47750  0.27740  Biso   1.000  N
  C71      1.0000 0.45480  0.41280  0.28360  Biso   1.000  C
  N23      1.0000 0.43300  0.42730  0.31250  Biso   1.000  N
  C72      1.0000 0.43740  0.50120  0.33640  Biso   1.000  C
  N24      1.0000 0.46620  0.56170  0.33460  Biso   1.000  N
  Zn7      1.0000 0.31960  0.84400  0.97240  Biso   1.000  Zn
  I13      1.0000 0.36460  0.87140  0.05700  Biso   1.000  I
  I14      1.0000 0.25920  0.92500  0.94460  Biso   1.000  I
  I15      1.0000 0.12040  0.97530  0.83560  Biso   1.000  I
  I16      1.0000 0.15110  0.14200  0.72990  Biso   1.000  I
  I17      1.0000 0.86430  0.03190  0.54790  Biso   1.000  I
  I18      1.0000 0.88660  0.94720  0.69580  Biso   1.000  I
  I19      1.0000 0.97260  0.85000  0.61780  Biso   1.000  I
  I20      1.0000 0.75850  0.98370  0.43820  Biso   1.000  I
  Zn8      1.0000 0.62962  0.60469  0.80386  Biso   1.000  Zn
  Zn9      1.0000 0.41995  0.33147  0.65813  Biso   1.000  Zn
  Zn10     1.0000 0.32627  0.56432  0.47708  Biso   1.000  Zn
  Zn11     1.0000 0.12889  0.30550  0.30203  Biso   1.000  Zn
  Zn12     1.0000 0.92184  0.57343  0.16046  Biso   1.000  Zn
  I21      1.0000 0.11520  0.45102  0.33630  Biso   1.000  I
  I22      1.0000 0.15229  0.28309  0.22902  Biso   1.000  I
  I23      1.0000 0.88533  0.46113  0.19928  Biso   1.000  I
  I24      1.0000 0.97535  0.54686  0.11605  Biso   1.000  I
  Zn13     1.0000 0.82900  0.34110  0.98140  Biso   1.000  Zn
  I25      1.0000 0.87311  0.36520  0.05787  Biso   1.000  I
  I26      1.0000 0.76750  0.43090  0.95280  Biso   1.000  I
  I27      1.0000 0.61079  0.46276  0.84079  Biso   1.000  I
  I28      1.0000 0.65283  0.61270  0.72990  Biso   1.000  I
  I29      1.0000 0.47386  0.35740  0.61373  Biso   1.000  I
  I30      1.0000 0.38320  0.44360  0.69760  Biso   1.000  I
  I31      1.0000 0.37154  0.54750  0.55780  Biso   1.000  I
  I32      1.0000 0.26680  0.47260  0.45180  Biso   1.000  I
  N25      1.0000 0.81740  0.20560  0.97680  Biso   1.000  N
  C73      1.0000 0.78570  0.17020  0.94640  Biso   1.000  C
  H49      1.0000 0.76800  0.20970  0.92760  Biso   1.000  H
  C74      1.0000 0.77930  0.07840  0.94270  Biso   1.000  C
  H50      1.0000 0.75850  0.05580  0.92000  Biso   1.000  H
  C75      1.0000 0.80320  0.01850  0.97210  Biso   1.000  C
  C76      1.0000 0.83560  0.05840  0.00250  Biso   1.000  C
  H51      1.0000 0.85370  0.02150  0.02220  Biso   1.000  H
  C77      1.0000 0.84050  0.14940  0.00330  Biso   1.000  C
  H52      1.0000 0.86200  0.17360  0.02440  Biso   1.000  H
  N26      1.0000 0.67140  0.66910  0.85180  Biso   1.000  N
  C78      1.0000 0.67920  0.75860  0.84690  Biso   1.000  C
  H53      1.0000 0.66470  0.79020  0.82160  Biso   1.000  H
  C79      1.0000 0.70700  0.80340  0.87690  Biso   1.000  C
  H54      1.0000 0.71020  0.86630  0.87400  Biso   1.000  H
  C80      1.0000 0.73120  0.75580  0.91240  Biso   1.000  C
  C81      1.0000 0.72250  0.66360  0.91620  Biso   1.000  C
  H55      1.0000 0.73740  0.62920  0.94020  Biso   1.000  H
  C82      1.0000 0.69280  0.62300  0.88600  Biso   1.000  C
  H56      1.0000 0.68740  0.56130  0.88950  Biso   1.000  H
  N27      1.0000 0.88120  0.64670  0.11490  Biso   1.000  N
  C83      1.0000 0.88730  0.72880  0.10690  Biso   1.000  C
  H57      1.0000 0.90770  0.75960  0.12690  Biso   1.000  H
  C84      1.0000 0.86550  0.77600  0.06990  Biso   1.000  C
  H58      1.0000 0.87320  0.83500  0.06350  Biso   1.000  H
  C85      1.0000 0.83510  0.74000  0.04460  Biso   1.000  C
  C86      1.0000 0.82760  0.65230  0.05210  Biso   1.000  C
  H59      1.0000 0.80740  0.62170  0.03180  Biso   1.000  H
  C87      1.0000 0.84940  0.60690  0.08950  Biso   1.000  C
  H60      1.0000 0.84180  0.54850  0.09710  Biso   1.000  H
  C88      1.0000 0.79820  0.92060  0.97270  Biso   1.000  C
  N28      1.0000 0.76770  0.88880  0.93950  Biso   1.000  N
  C89      1.0000 0.76170  0.80080  0.94470  Biso   1.000  C
  N29      1.0000 0.78200  0.75020  0.97800  Biso   1.000  N
  C90      1.0000 0.81120  0.79140  0.00650  Biso   1.000  C
  N30      1.0000 0.82090  0.87680  0.00170  Biso   1.000  N
  N31      1.0000 0.58230  0.69010  0.80050  Biso   1.000  N
  C91      1.0000 0.56500  0.73470  0.76410  Biso   1.000  C
  H61      1.0000 0.57450  0.72710  0.73680  Biso   1.000  H
  C92      1.0000 0.53450  0.79090  0.76380  Biso   1.000  C
  H62      1.0000 0.52430  0.82610  0.73780  Biso   1.000  H
  C93      1.0000 0.51860  0.79580  0.80230  Biso   1.000  C
  C94      1.0000 0.53290  0.74840  0.84010  Biso   1.000  C
  H63      1.0000 0.52120  0.74960  0.86610  Biso   1.000  H
  C95      1.0000 0.56630  0.69710  0.83800  Biso   1.000  C
  H64      1.0000 0.57850  0.66540  0.86450  Biso   1.000  H
  N32      1.0000 0.43800  0.22900  0.70400  Biso   1.000  N
  C96      1.0000 0.41420  0.21050  0.73480  Biso   1.000  C
  H65      1.0000 0.39410  0.25200  0.73760  Biso   1.000  H
  C97      1.0000 0.41840  0.13410  0.76160  Biso   1.000  C
  H66      1.0000 0.40200  0.12390  0.78280  Biso   1.000  H
  C98      1.0000 0.44820  0.07070  0.75640  Biso   1.000  C
  C99      1.0000 0.47340  0.09370  0.72680  Biso   1.000  C
  H67      1.0000 0.49470  0.05560  0.72440  Biso   1.000  H
  C100     1.0000 0.46700  0.17280  0.70080  Biso   1.000  C
  H68      1.0000 0.48390  0.18640  0.68040  Biso   1.000  H
  N33      1.0000 0.36240  0.85690  0.93130  Biso   1.000  N
  C101     1.0000 0.35350  0.91520  0.89820  Biso   1.000  C
  H69      1.0000 0.32970  0.94760  0.89580  Biso   1.000  H
  C102     1.0000 0.37520  0.93220  0.86790  Biso   1.000  C
  H70      1.0000 0.36670  0.97440  0.84440  Biso   1.000  H
  C103     1.0000 0.41160  0.88670  0.87080  Biso   1.000  C
  C104     1.0000 0.41900  0.82400  0.90280  Biso   1.000  C
  H71      1.0000 0.44190  0.78820  0.90560  Biso   1.000  H
  C105     1.0000 0.39360  0.81040  0.93220  Biso   1.000  C
  H72      1.0000 0.39960  0.76410  0.95420  Biso   1.000  H
  C106     1.0000 0.48480  0.86240  0.80570  Biso   1.000  C
  N34      1.0000 0.48170  0.93180  0.77670  Biso   1.000  N
  C107     1.0000 0.45310  0.98450  0.78340  Biso   1.000  C
  N35      1.0000 0.42900  0.97750  0.81320  Biso   1.000  N
  C108     1.0000 0.43590  0.90220  0.83900  Biso   1.000  C
  N36      1.0000 0.46280  0.84140  0.83620  Biso   1.000  N
  N37      1.0000 0.37880  0.26130  0.61220  Biso   1.000  N
  C109     1.0000 0.35050  0.29910  0.58390  Biso   1.000  C
  H73      1.0000 0.34710  0.36200  0.58680  Biso   1.000  H
  C110     1.0000 0.32490  0.25550  0.55030  Biso   1.000  C
  H74      1.0000 0.30280  0.28610  0.53340  Biso   1.000  H
  C111     1.0000 0.33150  0.16570  0.54120  Biso   1.000  C
  C112     1.0000 0.36100  0.12420  0.57300  Biso   1.000  C
  H75      1.0000 0.36520  0.06140  0.57100  Biso   1.000  H
  C113     1.0000 0.38320  0.17090  0.60560  Biso   1.000  C
  H76      1.0000 0.40340  0.14020  0.62570  Biso   1.000  H
  N38      1.0000 0.16930  0.23910  0.35030  Biso   1.000  N
  C114     1.0000 0.19050  0.27880  0.38690  Biso   1.000  C
  H77      1.0000 0.18560  0.34040  0.39160  Biso   1.000  H
  C115     1.0000 0.21870  0.23750  0.41780  Biso   1.000  C
  H78      1.0000 0.23300  0.26960  0.44310  Biso   1.000  H
  C116     1.0000 0.22620  0.14990  0.41180  Biso   1.000  C
  C117     1.0000 0.20460  0.10840  0.37470  Biso   1.000  C
  H79      1.0000 0.20940  0.04700  0.36920  Biso   1.000  H
  C118     1.0000 0.17660  0.15330  0.34590  Biso   1.000  C
  H80      1.0000 0.16140  0.12160  0.32110  Biso   1.000  H
  N39      1.0000 0.31440  0.70150  0.47060  Biso   1.000  N
  C119     1.0000 0.33890  0.75550  0.49790  Biso   1.000  C
  H81      1.0000 0.36070  0.73180  0.51880  Biso   1.000  H
  C120     1.0000 0.33190  0.84840  0.49520  Biso   1.000  C
  H82      1.0000 0.34910  0.88720  0.51500  Biso   1.000  H
  C121     1.0000 0.30290  0.88290  0.46680  Biso   1.000  C
  C122     1.0000 0.27730  0.82650  0.43940  Biso   1.000  C
  H83      1.0000 0.25530  0.84880  0.41850  Biso   1.000  H
  C123     1.0000 0.28530  0.73450  0.44370  Biso   1.000  C
  H84      1.0000 0.26770  0.69450  0.42530  Biso   1.000  H
  C124     1.0000 0.30800  0.11490  0.50490  Biso   1.000  C
  N40      1.0000 0.27860  0.15610  0.47770  Biso   1.000  N
  C125     1.0000 0.25880  0.10530  0.44430  Biso   1.000  C
  N41      1.0000 0.26530  0.01850  0.43750  Biso   1.000  N
  C126     1.0000 0.29450  0.98320  0.46680  Biso   1.000  C
  N42      1.0000 0.31720  0.02850  0.50220  Biso   1.000  N
  N43      1.0000 0.08020  0.22650  0.30010  Biso   1.000  N
  C127     1.0000 0.06630  0.17030  0.26500  Biso   1.000  C
  H85      1.0000 0.07830  0.17160  0.23920  Biso   1.000  H
  C128     1.0000 0.03560  0.11120  0.26480  Biso   1.000  C
  H86      1.0000 0.02680  0.07380  0.23920  Biso   1.000  H
  C129     1.0000 0.01790  0.10680  0.30160  Biso   1.000  C
  C130     1.0000 0.03470  0.16500  0.33730  Biso   1.000  C
  H87      1.0000 0.02510  0.16170  0.36460  Biso   1.000  H
  C131     1.0000 0.06400  0.22500  0.33530  Biso   1.000  C
  H88      1.0000 0.07220  0.26620  0.35960  Biso   1.000  H
  N44      1.0000 0.93930  0.67500  0.20760  Biso   1.000  N
  C132     1.0000 0.96530  0.73950  0.20020  Biso   1.000  C
  H89      1.0000 0.97970  0.72900  0.17700  Biso   1.000  H
  C133     1.0000 0.97170  0.81600  0.22330  Biso   1.000  C
  H90      1.0000 0.98930  0.85990  0.21610  Biso   1.000  H
  C134     1.0000 0.95220  0.82860  0.25760  Biso   1.000  C
  C135     1.0000 0.92760  0.76310  0.26780  Biso   1.000  C
  H91      1.0000 0.91470  0.76970  0.29260  Biso   1.000  H
  C136     1.0000 0.92230  0.68990  0.24170  Biso   1.000  C
  H92      1.0000 0.90470  0.64540  0.24850  Biso   1.000  H
  N45      1.0000 0.86020  0.04580  0.43020  Biso   1.000  N
  C137     1.0000 0.89260  0.09540  0.43180  Biso   1.000  C
  H93      1.0000 0.89810  0.14100  0.45430  Biso   1.000  H
  C138     1.0000 0.91780  0.08510  0.40390  Biso   1.000  C
  H94      1.0000 0.94010  0.12280  0.40630  Biso   1.000  H
  C139     1.0000 0.91030  0.01470  0.36950  Biso   1.000  C
  C140     1.0000 0.87920  0.96220  0.36810  Biso   1.000  C
  H95      1.0000 0.87470  0.91280  0.34780  Biso   1.000  H
  C141     1.0000 0.85160  0.98190  0.39880  Biso   1.000  C
  H96      1.0000 0.82790  0.94890  0.39600  Biso   1.000  H
  C142     1.0000 0.98680  0.04650  0.30420  Biso   1.000  C
  N46      1.0000 0.98170  0.97750  0.27740  Biso   1.000  N
  C143     1.0000 0.95480  0.91280  0.28360  Biso   1.000  C
  N47      1.0000 0.93300  0.92730  0.31250  Biso   1.000  N
  C144     1.0000 0.93740  0.00120  0.33640  Biso   1.000  C
  N48      1.0000 0.96620  0.06170  0.33460  Biso   1.000  N
  Zn14     1.0000 0.81960  0.34400  0.97240  Biso   1.000  Zn
  I33      1.0000 0.86460  0.37140  0.05700  Biso   1.000  I
  I34      1.0000 0.75920  0.42500  0.94460  Biso   1.000  I
  I35      1.0000 0.62040  0.47530  0.83560  Biso   1.000  I
  I36      1.0000 0.65110  0.64200  0.72990  Biso   1.000  I
  I37      1.0000 0.36430  0.53190  0.54790  Biso   1.000  I
  I38      1.0000 0.38660  0.44720  0.69580  Biso   1.000  I
  I39      1.0000 0.47260  0.35000  0.61780  Biso   1.000  I
  I40      1.0000 0.25850  0.48370  0.43820  Biso   1.000  I
  Zn15     1.0000 0.87038  0.10469  0.19614  Biso   1.000  Zn
  Zn16     1.0000 0.08005  0.83147  0.34187  Biso   1.000  Zn
  Zn17     1.0000 0.17373  0.06432  0.52292  Biso   1.000  Zn
  Zn18     1.0000 0.37111  0.80550  0.69797  Biso   1.000  Zn
  Zn19     1.0000 0.57816  0.07343  0.83954  Biso   1.000  Zn
  I41      1.0000 0.38480  0.95102  0.66370  Biso   1.000  I
  I42      1.0000 0.34771  0.78309  0.77098  Biso   1.000  I
  I43      1.0000 0.61467  0.96113  0.80072  Biso   1.000  I
  I44      1.0000 0.52465  0.04686  0.88395  Biso   1.000  I
  Zn20     1.0000 0.67100  0.84110  0.01860  Biso   1.000  Zn
  I45      1.0000 0.62689  0.86520  0.94213  Biso   1.000  I
  I46      1.0000 0.73250  0.93090  0.04720  Biso   1.000  I
  I47      1.0000 0.88921  0.96276  0.15921  Biso   1.000  I
  I48      1.0000 0.84717  0.11270  0.27010  Biso   1.000  I
  I49      1.0000 0.02614  0.85740  0.38627  Biso   1.000  I
  I50      1.0000 0.11680  0.94360  0.30240  Biso   1.000  I
  I51      1.0000 0.12846  0.04750  0.44220  Biso   1.000  I
  I52      1.0000 0.23320  0.97260  0.54820  Biso   1.000  I
  N49      1.0000 0.68260  0.70560  0.02320  Biso   1.000  N
  C145     1.0000 0.71430  0.67020  0.05360  Biso   1.000  C
  H97      1.0000 0.73200  0.70970  0.07240  Biso   1.000  H
  C146     1.0000 0.72070  0.57840  0.05730  Biso   1.000  C
  H98      1.0000 0.74150  0.55580  0.08000  Biso   1.000  H
  C147     1.0000 0.69680  0.51850  0.02790  Biso   1.000  C
  C148     1.0000 0.66440  0.55840  0.99750  Biso   1.000  C
  H99      1.0000 0.64630  0.52150  0.97780  Biso   1.000  H
  C149     1.0000 0.65950  0.64940  0.99670  Biso   1.000  C
  H100     1.0000 0.63800  0.67360  0.97560  Biso   1.000  H
  N50      1.0000 0.82860  0.16910  0.14820  Biso   1.000  N
  C150     1.0000 0.82080  0.25860  0.15310  Biso   1.000  C
  H101     1.0000 0.83530  0.29020  0.17840  Biso   1.000  H
  C151     1.0000 0.79300  0.30340  0.12310  Biso   1.000  C
  H102     1.0000 0.78980  0.36630  0.12600  Biso   1.000  H
  C152     1.0000 0.76880  0.25580  0.08760  Biso   1.000  C
  C153     1.0000 0.77750  0.16360  0.08380  Biso   1.000  C
  H103     1.0000 0.76260  0.12920  0.05980  Biso   1.000  H
  C154     1.0000 0.80720  0.12300  0.11400  Biso   1.000  C
  H104     1.0000 0.81260  0.06130  0.11050  Biso   1.000  H
  N51      1.0000 0.61880  0.14670  0.88510  Biso   1.000  N
  C155     1.0000 0.61270  0.22880  0.89310  Biso   1.000  C
  H105     1.0000 0.59230  0.25960  0.87310  Biso   1.000  H
  C156     1.0000 0.63450  0.27600  0.93010  Biso   1.000  C
  H106     1.0000 0.62680  0.33500  0.93650  Biso   1.000  H
  C157     1.0000 0.66490  0.24000  0.95540  Biso   1.000  C
  C158     1.0000 0.67240  0.15230  0.94790  Biso   1.000  C
  H107     1.0000 0.69260  0.12170  0.96820  Biso   1.000  H
  C159     1.0000 0.65060  0.10690  0.91050  Biso   1.000  C
  H108     1.0000 0.65820  0.04850  0.90290  Biso   1.000  H
  C160     1.0000 0.70180  0.42060  0.02730  Biso   1.000  C
  N52      1.0000 0.73230  0.38880  0.06050  Biso   1.000  N
  C161     1.0000 0.73830  0.30080  0.05530  Biso   1.000  C
  N53      1.0000 0.71800  0.25020  0.02200  Biso   1.000  N
  C162     1.0000 0.68880  0.29140  0.99350  Biso   1.000  C
  N54      1.0000 0.67910  0.37680  0.99830  Biso   1.000  N
  N55      1.0000 0.91770  0.19010  0.19950  Biso   1.000  N
  C163     1.0000 0.93500  0.23470  0.23590  Biso   1.000  C
  H109     1.0000 0.92550  0.22710  0.26320  Biso   1.000  H
  C164     1.0000 0.96550  0.29090  0.23620  Biso   1.000  C
  H110     1.0000 0.97570  0.32610  0.26220  Biso   1.000  H
  C165     1.0000 0.98140  0.29580  0.19770  Biso   1.000  C
  C166     1.0000 0.96710  0.24840  0.15990  Biso   1.000  C
  H111     1.0000 0.97880  0.24960  0.13390  Biso   1.000  H
  C167     1.0000 0.93370  0.19710  0.16200  Biso   1.000  C
  H112     1.0000 0.92150  0.16540  0.13550  Biso   1.000  H
  N56      1.0000 0.06200  0.72900  0.29600  Biso   1.000  N
  C168     1.0000 0.08580  0.71050  0.26520  Biso   1.000  C
  H113     1.0000 0.10590  0.75200  0.26240  Biso   1.000  H
  C169     1.0000 0.08160  0.63410  0.23840  Biso   1.000  C
  H114     1.0000 0.09800  0.62390  0.21720  Biso   1.000  H
  C170     1.0000 0.05180  0.57070  0.24360  Biso   1.000  C
  C171     1.0000 0.02660  0.59370  0.27320  Biso   1.000  C
  H115     1.0000 0.00530  0.55560  0.27560  Biso   1.000  H
  C172     1.0000 0.03300  0.67280  0.29920  Biso   1.000  C
  H116     1.0000 0.01610  0.68640  0.31960  Biso   1.000  H
  N57      1.0000 0.13760  0.35690  0.06870  Biso   1.000  N
  C173     1.0000 0.14650  0.41520  0.10180  Biso   1.000  C
  H117     1.0000 0.17030  0.44760  0.10420  Biso   1.000  H
  C174     1.0000 0.12480  0.43220  0.13210  Biso   1.000  C
  H118     1.0000 0.13330  0.47440  0.15560  Biso   1.000  H
  C175     1.0000 0.08840  0.38670  0.12920  Biso   1.000  C
  C176     1.0000 0.08100  0.32400  0.09720  Biso   1.000  C
  H119     1.0000 0.05810  0.28820  0.09440  Biso   1.000  H
  C177     1.0000 0.10640  0.31040  0.06780  Biso   1.000  C
  H120     1.0000 0.10040  0.26410  0.04580  Biso   1.000  H
  C178     1.0000 0.01520  0.36240  0.19430  Biso   1.000  C
  N58      1.0000 0.01830  0.43180  0.22330  Biso   1.000  N
  C179     1.0000 0.04690  0.48450  0.21660  Biso   1.000  C
  N59      1.0000 0.07100  0.47750  0.18680  Biso   1.000  N
  C180     1.0000 0.06410  0.40220  0.16100  Biso   1.000  C
  N60      1.0000 0.03720  0.34140  0.16380  Biso   1.000  N
  N61      1.0000 0.12120  0.76130  0.38780  Biso   1.000  N
  C181     1.0000 0.14950  0.79910  0.41610  Biso   1.000  C
  H121     1.0000 0.15290  0.86200  0.41320  Biso   1.000  H
  C182     1.0000 0.17510  0.75550  0.44970  Biso   1.000  C
  H122     1.0000 0.19720  0.78610  0.46660  Biso   1.000  H
  C183     1.0000 0.16850  0.66570  0.45880  Biso   1.000  C
  C184     1.0000 0.13900  0.62420  0.42700  Biso   1.000  C
  H123     1.0000 0.13480  0.56140  0.42900  Biso   1.000  H
  C185     1.0000 0.11680  0.67090  0.39440  Biso   1.000  C
  H124     1.0000 0.09660  0.64020  0.37430  Biso   1.000  H
  N62      1.0000 0.33070  0.73910  0.64970  Biso   1.000  N
  C186     1.0000 0.30950  0.77880  0.61310  Biso   1.000  C
  H125     1.0000 0.31440  0.84040  0.60840  Biso   1.000  H
  C187     1.0000 0.28130  0.73750  0.58220  Biso   1.000  C
  H126     1.0000 0.26700  0.76960  0.55690  Biso   1.000  H
  C188     1.0000 0.27380  0.64990  0.58820  Biso   1.000  C
  C189     1.0000 0.29540  0.60840  0.62530  Biso   1.000  C
  H127     1.0000 0.29060  0.54700  0.63080  Biso   1.000  H
  C190     1.0000 0.32340  0.65330  0.65410  Biso   1.000  C
  H128     1.0000 0.33860  0.62160  0.67890  Biso   1.000  H
  N63      1.0000 0.18560  0.20150  0.52940  Biso   1.000  N
  C191     1.0000 0.16110  0.25550  0.50210  Biso   1.000  C
  H129     1.0000 0.13930  0.23180  0.48120  Biso   1.000  H
  C192     1.0000 0.16810  0.34840  0.50480  Biso   1.000  C
  H130     1.0000 0.15090  0.38720  0.48500  Biso   1.000  H
  C193     1.0000 0.19710  0.38290  0.53320  Biso   1.000  C
  C194     1.0000 0.22270  0.32650  0.56060  Biso   1.000  C
  H131     1.0000 0.24470  0.34880  0.58150  Biso   1.000  H
  C195     1.0000 0.21470  0.23450  0.55630  Biso   1.000  C
  H132     1.0000 0.23230  0.19450  0.57470  Biso   1.000  H
  C196     1.0000 0.19200  0.61490  0.49510  Biso   1.000  C
  N64      1.0000 0.22140  0.65610  0.52230  Biso   1.000  N
  C197     1.0000 0.24120  0.60530  0.55570  Biso   1.000  C
  N65      1.0000 0.23470  0.51850  0.56250  Biso   1.000  N
  C198     1.0000 0.20550  0.48320  0.53320  Biso   1.000  C
  N66      1.0000 0.18280  0.52850  0.49780  Biso   1.000  N
  N67      1.0000 0.41980  0.72650  0.69990  Biso   1.000  N
  C199     1.0000 0.43370  0.67030  0.73500  Biso   1.000  C
  H133     1.0000 0.42170  0.67160  0.76080  Biso   1.000  H
  C200     1.0000 0.46440  0.61120  0.73520  Biso   1.000  C
  H134     1.0000 0.47320  0.57380  0.76080  Biso   1.000  H
  C201     1.0000 0.48210  0.60680  0.69840  Biso   1.000  C
  C202     1.0000 0.46530  0.66500  0.66270  Biso   1.000  C
  H135     1.0000 0.47490  0.66170  0.63540  Biso   1.000  H
  C203     1.0000 0.43600  0.72500  0.66470  Biso   1.000  C
  H136     1.0000 0.42780  0.76620  0.64040  Biso   1.000  H
  N68      1.0000 0.56070  0.17500  0.79240  Biso   1.000  N
  C204     1.0000 0.53470  0.23950  0.79980  Biso   1.000  C
  H137     1.0000 0.52030  0.22900  0.82300  Biso   1.000  H
  C205     1.0000 0.52830  0.31600  0.77670  Biso   1.000  C
  H138     1.0000 0.51070  0.35990  0.78390  Biso   1.000  H
  C206     1.0000 0.54780  0.32860  0.74240  Biso   1.000  C
  C207     1.0000 0.57240  0.26310  0.73220  Biso   1.000  C
  H139     1.0000 0.58530  0.26970  0.70740  Biso   1.000  H
  C208     1.0000 0.57770  0.18990  0.75830  Biso   1.000  C
  H140     1.0000 0.59530  0.14540  0.75150  Biso   1.000  H
  N69      1.0000 0.63980  0.54580  0.56980  Biso   1.000  N
  C209     1.0000 0.60740  0.59540  0.56820  Biso   1.000  C
  H141     1.0000 0.60190  0.64100  0.54570  Biso   1.000  H
  C210     1.0000 0.58220  0.58510  0.59610  Biso   1.000  C
  H142     1.0000 0.55990  0.62280  0.59370  Biso   1.000  H
  C211     1.0000 0.58970  0.51470  0.63050  Biso   1.000  C
  C212     1.0000 0.62080  0.46220  0.63190  Biso   1.000  C
  H143     1.0000 0.62530  0.41280  0.65220  Biso   1.000  H
  C213     1.0000 0.64840  0.48190  0.60120  Biso   1.000  C
  H144     1.0000 0.67210  0.44890  0.60400  Biso   1.000  H
  C214     1.0000 0.51320  0.54650  0.69580  Biso   1.000  C
  N70      1.0000 0.51830  0.47750  0.72260  Biso   1.000  N
  C215     1.0000 0.54520  0.41280  0.71640  Biso   1.000  C
  N71      1.0000 0.56700  0.42730  0.68750  Biso   1.000  N
  C216     1.0000 0.56260  0.50120  0.66360  Biso   1.000  C
  N72      1.0000 0.53380  0.56170  0.66540  Biso   1.000  N
  Zn21     1.0000 0.68040  0.84400  0.02760  Biso   1.000  Zn
  I53      1.0000 0.63540  0.87140  0.94300  Biso   1.000  I
  I54      1.0000 0.74080  0.92500  0.05540  Biso   1.000  I
  I55      1.0000 0.87960  0.97530  0.16440  Biso   1.000  I
  I56      1.0000 0.84890  0.14200  0.27010  Biso   1.000  I
  I57      1.0000 0.13570  0.03190  0.45210  Biso   1.000  I
  I58      1.0000 0.11340  0.94720  0.30420  Biso   1.000  I
  I59      1.0000 0.02740  0.85000  0.38220  Biso   1.000  I
  I60      1.0000 0.24150  0.98370  0.56180  Biso   1.000  I
  Zn22     1.0000 0.37038  0.60469  0.19614  Biso   1.000  Zn
  Zn23     1.0000 0.58005  0.33147  0.34187  Biso   1.000  Zn
  Zn24     1.0000 0.67373  0.56432  0.52292  Biso   1.000  Zn
  Zn25     1.0000 0.87111  0.30550  0.69797  Biso   1.000  Zn
  Zn26     1.0000 0.07816  0.57343  0.83954  Biso   1.000  Zn
  I61      1.0000 0.88480  0.45102  0.66370  Biso   1.000  I
  I62      1.0000 0.84771  0.28309  0.77098  Biso   1.000  I
  I63      1.0000 0.11467  0.46113  0.80072  Biso   1.000  I
  I64      1.0000 0.02465  0.54686  0.88395  Biso   1.000  I
  Zn27     1.0000 0.17100  0.34110  0.01860  Biso   1.000  Zn
  I65      1.0000 0.12689  0.36520  0.94213  Biso   1.000  I
  I66      1.0000 0.23250  0.43090  0.04720  Biso   1.000  I
  I67      1.0000 0.38921  0.46276  0.15921  Biso   1.000  I
  I68      1.0000 0.34717  0.61270  0.27010  Biso   1.000  I
  I69      1.0000 0.52614  0.35740  0.38627  Biso   1.000  I
  I70      1.0000 0.61680  0.44360  0.30240  Biso   1.000  I
  I71      1.0000 0.62846  0.54750  0.44220  Biso   1.000  I
  I72      1.0000 0.73320  0.47260  0.54820  Biso   1.000  I
  N73      1.0000 0.18260  0.20560  0.02320  Biso   1.000  N
  C217     1.0000 0.21430  0.17020  0.05360  Biso   1.000  C
  H145     1.0000 0.23200  0.20970  0.07240  Biso   1.000  H
  C218     1.0000 0.22070  0.07840  0.05730  Biso   1.000  C
  H146     1.0000 0.24150  0.05580  0.08000  Biso   1.000  H
  C219     1.0000 0.19680  0.01850  0.02790  Biso   1.000  C
  C220     1.0000 0.16440  0.05840  0.99750  Biso   1.000  C
  H147     1.0000 0.14630  0.02150  0.97780  Biso   1.000  H
  C221     1.0000 0.15950  0.14940  0.99670  Biso   1.000  C
  H148     1.0000 0.13800  0.17360  0.97560  Biso   1.000  H
  N74      1.0000 0.32860  0.66910  0.14820  Biso   1.000  N
  C222     1.0000 0.32080  0.75860  0.15310  Biso   1.000  C
  H149     1.0000 0.33530  0.79020  0.17840  Biso   1.000  H
  C223     1.0000 0.29300  0.80340  0.12310  Biso   1.000  C
  H150     1.0000 0.28980  0.86630  0.12600  Biso   1.000  H
  C224     1.0000 0.26880  0.75580  0.08760  Biso   1.000  C
  C225     1.0000 0.27750  0.66360  0.08380  Biso   1.000  C
  H151     1.0000 0.26260  0.62920  0.05980  Biso   1.000  H
  C226     1.0000 0.30720  0.62300  0.11400  Biso   1.000  C
  H152     1.0000 0.31260  0.56130  0.11050  Biso   1.000  H
  N75      1.0000 0.11880  0.64670  0.88510  Biso   1.000  N
  C227     1.0000 0.11270  0.72880  0.89310  Biso   1.000  C
  H153     1.0000 0.09230  0.75960  0.87310  Biso   1.000  H
  C228     1.0000 0.13450  0.77600  0.93010  Biso   1.000  C
  H154     1.0000 0.12680  0.83500  0.93650  Biso   1.000  H
  C229     1.0000 0.16490  0.74000  0.95540  Biso   1.000  C
  C230     1.0000 0.17240  0.65230  0.94790  Biso   1.000  C
  H155     1.0000 0.19260  0.62170  0.96820  Biso   1.000  H
  C231     1.0000 0.15060  0.60690  0.91050  Biso   1.000  C
  H156     1.0000 0.15820  0.54850  0.90290  Biso   1.000  H
  C232     1.0000 0.20180  0.92060  0.02730  Biso   1.000  C
  N76      1.0000 0.23230  0.88880  0.06050  Biso   1.000  N
  C233     1.0000 0.23830  0.80080  0.05530  Biso   1.000  C
  N77      1.0000 0.21800  0.75020  0.02200  Biso   1.000  N
  C234     1.0000 0.18880  0.79140  0.99350  Biso   1.000  C
  N78      1.0000 0.17910  0.87680  0.99830  Biso   1.000  N
  N79      1.0000 0.41770  0.69010  0.19950  Biso   1.000  N
  C235     1.0000 0.43500  0.73470  0.23590  Biso   1.000  C
  H157     1.0000 0.42550  0.72710  0.26320  Biso   1.000  H
  C236     1.0000 0.46550  0.79090  0.23620  Biso   1.000  C
  H158     1.0000 0.47570  0.82610  0.26220  Biso   1.000  H
  C237     1.0000 0.48140  0.79580  0.19770  Biso   1.000  C
  C238     1.0000 0.46710  0.74840  0.15990  Biso   1.000  C
  H159     1.0000 0.47880  0.74960  0.13390  Biso   1.000  H
  C239     1.0000 0.43370  0.69710  0.16200  Biso   1.000  C
  H160     1.0000 0.42150  0.66540  0.13550  Biso   1.000  H
  N80      1.0000 0.56200  0.22900  0.29600  Biso   1.000  N
  C240     1.0000 0.58580  0.21050  0.26520  Biso   1.000  C
  H161     1.0000 0.60590  0.25200  0.26240  Biso   1.000  H
  C241     1.0000 0.58160  0.13410  0.23840  Biso   1.000  C
  H162     1.0000 0.59800  0.12390  0.21720  Biso   1.000  H
  C242     1.0000 0.55180  0.07070  0.24360  Biso   1.000  C
  C243     1.0000 0.52660  0.09370  0.27320  Biso   1.000  C
  H163     1.0000 0.50530  0.05560  0.27560  Biso   1.000  H
  C244     1.0000 0.53300  0.17280  0.29920  Biso   1.000  C
  H164     1.0000 0.51610  0.18640  0.31960  Biso   1.000  H
  N81      1.0000 0.63760  0.85690  0.06870  Biso   1.000  N
  C245     1.0000 0.64650  0.91520  0.10180  Biso   1.000  C
  H165     1.0000 0.67030  0.94760  0.10420  Biso   1.000  H
  C246     1.0000 0.62480  0.93220  0.13210  Biso   1.000  C
  H166     1.0000 0.63330  0.97440  0.15560  Biso   1.000  H
  C247     1.0000 0.58840  0.88670  0.12920  Biso   1.000  C
  C248     1.0000 0.58100  0.82400  0.09720  Biso   1.000  C
  H167     1.0000 0.55810  0.78820  0.09440  Biso   1.000  H
  C249     1.0000 0.60640  0.81040  0.06780  Biso   1.000  C
  H168     1.0000 0.60040  0.76410  0.04580  Biso   1.000  H
  C250     1.0000 0.51520  0.86240  0.19430  Biso   1.000  C
  N82      1.0000 0.51830  0.93180  0.22330  Biso   1.000  N
  C251     1.0000 0.54690  0.98450  0.21660  Biso   1.000  C
  N83      1.0000 0.57100  0.97750  0.18680  Biso   1.000  N
  C252     1.0000 0.56410  0.90220  0.16100  Biso   1.000  C
  N84      1.0000 0.53720  0.84140  0.16380  Biso   1.000  N
  N85      1.0000 0.62120  0.26130  0.38780  Biso   1.000  N
  C253     1.0000 0.64950  0.29910  0.41610  Biso   1.000  C
  H169     1.0000 0.65290  0.36200  0.41320  Biso   1.000  H
  C254     1.0000 0.67510  0.25550  0.44970  Biso   1.000  C
  H170     1.0000 0.69720  0.28610  0.46660  Biso   1.000  H
  C255     1.0000 0.66850  0.16570  0.45880  Biso   1.000  C
  C256     1.0000 0.63900  0.12420  0.42700  Biso   1.000  C
  H171     1.0000 0.63480  0.06140  0.42900  Biso   1.000  H
  C257     1.0000 0.61680  0.17090  0.39440  Biso   1.000  C
  H172     1.0000 0.59660  0.14020  0.37430  Biso   1.000  H
  N86      1.0000 0.83070  0.23910  0.64970  Biso   1.000  N
  C258     1.0000 0.80950  0.27880  0.61310  Biso   1.000  C
  H173     1.0000 0.81440  0.34040  0.60840  Biso   1.000  H
  C259     1.0000 0.78130  0.23750  0.58220  Biso   1.000  C
  H174     1.0000 0.76700  0.26960  0.55690  Biso   1.000  H
  C260     1.0000 0.77380  0.14990  0.58820  Biso   1.000  C
  C261     1.0000 0.79540  0.10840  0.62530  Biso   1.000  C
  H175     1.0000 0.79060  0.04700  0.63080  Biso   1.000  H
  C262     1.0000 0.82340  0.15330  0.65410  Biso   1.000  C
  H176     1.0000 0.83860  0.12160  0.67890  Biso   1.000  H
  N87      1.0000 0.68560  0.70150  0.52940  Biso   1.000  N
  C263     1.0000 0.66110  0.75550  0.50210  Biso   1.000  C
  H177     1.0000 0.63930  0.73180  0.48120  Biso   1.000  H
  C264     1.0000 0.66810  0.84840  0.50480  Biso   1.000  C
  H178     1.0000 0.65090  0.88720  0.48500  Biso   1.000  H
  C265     1.0000 0.69710  0.88290  0.53320  Biso   1.000  C
  C266     1.0000 0.72270  0.82650  0.56060  Biso   1.000  C
  H179     1.0000 0.74470  0.84880  0.58150  Biso   1.000  H
  C267     1.0000 0.71470  0.73450  0.55630  Biso   1.000  C
  H180     1.0000 0.73230  0.69450  0.57470  Biso   1.000  H
  C268     1.0000 0.69200  0.11490  0.49510  Biso   1.000  C
  N88      1.0000 0.72140  0.15610  0.52230  Biso   1.000  N
  C269     1.0000 0.74120  0.10530  0.55570  Biso   1.000  C
  N89      1.0000 0.73470  0.01850  0.56250  Biso   1.000  N
  C270     1.0000 0.70550  0.98320  0.53320  Biso   1.000  C
  N90      1.0000 0.68280  0.02850  0.49780  Biso   1.000  N
  N91      1.0000 0.91980  0.22650  0.69990  Biso   1.000  N
  C271     1.0000 0.93370  0.17030  0.73500  Biso   1.000  C
  H181     1.0000 0.92170  0.17160  0.76080  Biso   1.000  H
  C272     1.0000 0.96440  0.11120  0.73520  Biso   1.000  C
  H182     1.0000 0.97320  0.07380  0.76080  Biso   1.000  H
  C273     1.0000 0.98210  0.10680  0.69840  Biso   1.000  C
  C274     1.0000 0.96530  0.16500  0.66270  Biso   1.000  C
  H183     1.0000 0.97490  0.16170  0.63540  Biso   1.000  H
  C275     1.0000 0.93600  0.22500  0.66470  Biso   1.000  C
  H184     1.0000 0.92780  0.26620  0.64040  Biso   1.000  H
  N92      1.0000 0.06070  0.67500  0.79240  Biso   1.000  N
  C276     1.0000 0.03470  0.73950  0.79980  Biso   1.000  C
  H185     1.0000 0.02030  0.72900  0.82300  Biso   1.000  H
  C277     1.0000 0.02830  0.81600  0.77670  Biso   1.000  C
  H186     1.0000 0.01070  0.85990  0.78390  Biso   1.000  H
  C278     1.0000 0.04780  0.82860  0.74240  Biso   1.000  C
  C279     1.0000 0.07240  0.76310  0.73220  Biso   1.000  C
  H187     1.0000 0.08530  0.76970  0.70740  Biso   1.000  H
  C280     1.0000 0.07770  0.68990  0.75830  Biso   1.000  C
  H188     1.0000 0.09530  0.64540  0.75150  Biso   1.000  H
  N93      1.0000 0.13980  0.04580  0.56980  Biso   1.000  N
  C281     1.0000 0.10740  0.09540  0.56820  Biso   1.000  C
  H189     1.0000 0.10190  0.14100  0.54570  Biso   1.000  H
  C282     1.0000 0.08220  0.08510  0.59610  Biso   1.000  C
  H190     1.0000 0.05990  0.12280  0.59370  Biso   1.000  H
  C283     1.0000 0.08970  0.01470  0.63050  Biso   1.000  C
  C284     1.0000 0.12080  0.96220  0.63190  Biso   1.000  C
  H191     1.0000 0.12530  0.91280  0.65220  Biso   1.000  H
  C285     1.0000 0.14840  0.98190  0.60120  Biso   1.000  C
  H192     1.0000 0.17210  0.94890  0.60400  Biso   1.000  H
  C286     1.0000 0.01320  0.04650  0.69580  Biso   1.000  C
  N94      1.0000 0.01830  0.97750  0.72260  Biso   1.000  N
  C287     1.0000 0.04520  0.91280  0.71640  Biso   1.000  C
  N95      1.0000 0.06700  0.92730  0.68750  Biso   1.000  N
  C288     1.0000 0.06260  0.00120  0.66360  Biso   1.000  C
  N96      1.0000 0.03380  0.06170  0.66540  Biso   1.000  N
  Zn28     1.0000 0.18040  0.34400  0.02760  Biso   1.000  Zn
  I73      1.0000 0.13540  0.37140  0.94300  Biso   1.000  I
  I74      1.0000 0.24080  0.42500  0.05540  Biso   1.000  I
  I75      1.0000 0.37960  0.47530  0.16440  Biso   1.000  I
  I76      1.0000 0.34890  0.64200  0.27010  Biso   1.000  I
  I77      1.0000 0.63570  0.53190  0.45210  Biso   1.000  I
  I78      1.0000 0.61340  0.44720  0.30420  Biso   1.000  I
  I79      1.0000 0.52740  0.35000  0.38220  Biso   1.000  I
  I80      1.0000 0.74150  0.48370  0.56180  Biso   1.000  I
