data_image0
_cell_length_a       34.5793
_cell_length_b       14.9292
_cell_length_c       30.6203
_cell_angle_alpha    90
_cell_angle_beta     101.179
_cell_angle_gamma    90

_symmetry_space_group_name_H-M    "P 1"
_symmetry_int_tables_number       1

loop_
  _symmetry_equiv_pos_as_xyz
  'x, y, z'

loop_
  _atom_site_label
  _atom_site_occupancy
  _atom_site_fract_x
  _atom_site_fract_y
  _atom_site_fract_z
  _atom_site_thermal_displace_type
  _atom_site_B_iso_or_equiv
  _atom_site_type_symbol
  Zn1      1.0000 0.62891  0.39949  0.80643  Biso   1.000  Zn
  Zn2      1.0000 0.42061  0.12881  0.65791  Biso   1.000  Zn
  Zn3      1.0000 0.12882  0.10479  0.30784  Biso   1.000  Zn
  I1       1.0000 0.61281  0.25847  0.84368  Biso   1.000  I
  I2       1.0000 0.65234  0.41064  0.73422  Biso   1.000  I
  I3       1.0000 0.38329  0.24107  0.69567  Biso   1.000  I
  I4       1.0000 0.47731  0.15613  0.61849  Biso   1.000  I
  I5       1.0000 0.15276  0.09392  0.23605  Biso   1.000  I
  I6       1.0000 0.11261  0.24681  0.34417  Biso   1.000  I
  Zn4      1.0000 0.42233  0.87590  0.15758  Biso   1.000  Zn
  Zn5      1.0000 0.32642  0.63884  0.97708  Biso   1.000  Zn
  Zn6      1.0000 0.32761  0.36290  0.47970  Biso   1.000  Zn
  I7       1.0000 0.38309  0.76383  0.19407  Biso   1.000  I
  I8       1.0000 0.47938  0.84865  0.11990  Biso   1.000  I
  I9       1.0000 0.37207  0.66254  0.05211  Biso   1.000  I
  I10      1.0000 0.26226  0.72342  0.94946  Biso   1.000  I
  I11      1.0000 0.37283  0.34375  0.55565  Biso   1.000  I
  I12      1.0000 0.26500  0.27454  0.45391  Biso   1.000  I
  N1       1.0000 0.38310  0.94270  0.10900  Biso   1.000  N
  C1       1.0000 0.35400  0.89970  0.08050  Biso   1.000  C
  H1       1.0000 0.35060  0.83710  0.08380  Biso   1.000  H
  C2       1.0000 0.32940  0.94480  0.04680  Biso   1.000  C
  H2       1.0000 0.30750  0.91610  0.02850  Biso   1.000  H
  C3       1.0000 0.33860  0.03880  0.04050  Biso   1.000  C
  C4       1.0000 0.36510  0.07840  0.06960  Biso   1.000  C
  H3       1.0000 0.36820  0.14160  0.06930  Biso   1.000  H
  C5       1.0000 0.38790  0.02870  0.09980  Biso   1.000  C
  H4       1.0000 0.41020  0.05760  0.11700  Biso   1.000  H
  N2       1.0000 0.31450  0.50590  0.97270  Biso   1.000  N
  C6       1.0000 0.28340  0.46790  0.94300  Biso   1.000  C
  H5       1.0000 0.26520  0.50580  0.92420  Biso   1.000  H
  C7       1.0000 0.27810  0.37500  0.94010  Biso   1.000  C
  H6       1.0000 0.25720  0.35110  0.91860  Biso   1.000  H
  C8       1.0000 0.30230  0.31870  0.96720  Biso   1.000  C
  C9       1.0000 0.33250  0.36120  0.99980  Biso   1.000  C
  H7       1.0000 0.35010  0.32470  0.02000  Biso   1.000  H
  C10      1.0000 0.33670  0.45060  0.00250  Biso   1.000  C
  H8       1.0000 0.35570  0.47570  0.02590  Biso   1.000  H
  N3       1.0000 0.17060  0.96300  0.85330  Biso   1.000  N
  C11      1.0000 0.19320  0.92010  0.88630  Biso   1.000  C
  H9       1.0000 0.18880  0.85780  0.88930  Biso   1.000  H
  C12      1.0000 0.22180  0.95870  0.91570  Biso   1.000  C
  H10      1.0000 0.23720  0.92470  0.93900  Biso   1.000  H
  C13      1.0000 0.22900  0.05280  0.91160  Biso   1.000  C
  C14      1.0000 0.20490  0.09690  0.87920  Biso   1.000  C
  H11      1.0000 0.20720  0.16000  0.87670  Biso   1.000  H
  C15      1.0000 0.17630  0.05100  0.84910  Biso   1.000  C
  H12      1.0000 0.16060  0.08280  0.82520  Biso   1.000  H
  C16      1.0000 0.31210  0.08980  0.00150  Biso   1.000  C
  N4       1.0000 0.31950  0.17550  0.00000  Biso   1.000  N
  C17      1.0000 0.29730  0.22220  0.96880  Biso   1.000  C
  N5       1.0000 0.26680  0.18270  0.93880  Biso   1.000  N
  C18      1.0000 0.26340  0.10150  0.94230  Biso   1.000  C
  N6       1.0000 0.28190  0.04500  0.97380  Biso   1.000  N
  N7       1.0000 0.35810  0.65150  0.92900  Biso   1.000  N
  C19      1.0000 0.35060  0.72210  0.89620  Biso   1.000  C
  H13      1.0000 0.32730  0.75710  0.89410  Biso   1.000  H
  C20      1.0000 0.37560  0.74010  0.86820  Biso   1.000  C
  H14      1.0000 0.37090  0.79020  0.84880  Biso   1.000  H
  C21      1.0000 0.40750  0.68700  0.86780  Biso   1.000  C
  C22      1.0000 0.41350  0.61420  0.89730  Biso   1.000  C
  H15      1.0000 0.43420  0.57270  0.89660  Biso   1.000  H
  C23      1.0000 0.38940  0.60430  0.92690  Biso   1.000  C
  H16      1.0000 0.39590  0.55800  0.94840  Biso   1.000  H
  N8       1.0000 0.58000  0.48260  0.80230  Biso   1.000  N
  C24      1.0000 0.56550  0.49730  0.83720  Biso   1.000  C
  H17      1.0000 0.57830  0.47060  0.86430  Biso   1.000  H
  C25      1.0000 0.53320  0.54820  0.83810  Biso   1.000  C
  H18      1.0000 0.52140  0.54780  0.86370  Biso   1.000  H
  C26      1.0000 0.51760  0.60030  0.80220  Biso   1.000  C
  C27      1.0000 0.53630  0.59080  0.76660  Biso   1.000  C
  H19      1.0000 0.52730  0.62460  0.74030  Biso   1.000  H
  C28      1.0000 0.56800  0.53270  0.76830  Biso   1.000  C
  H20      1.0000 0.58110  0.53020  0.74380  Biso   1.000  H
  N9       1.0000 0.43520  0.02500  0.70330  Biso   1.000  N
  C29      1.0000 0.41090  0.99950  0.72940  Biso   1.000  C
  H21      1.0000 0.38810  0.03540  0.72900  Biso   1.000  H
  C30      1.0000 0.41500  0.93220  0.75470  Biso   1.000  C
  H22      1.0000 0.39770  0.92260  0.77480  Biso   1.000  H
  C31      1.0000 0.44650  0.86980  0.75260  Biso   1.000  C
  C32      1.0000 0.47280  0.88810  0.72530  Biso   1.000  C
  H23      1.0000 0.49370  0.84850  0.72250  Biso   1.000  H
  C33      1.0000 0.46680  0.96810  0.70220  Biso   1.000  C
  H24      1.0000 0.48530  0.98520  0.68460  Biso   1.000  H
  C34      1.0000 0.43190  0.70130  0.83560  Biso   1.000  C
  N10      1.0000 0.46230  0.64160  0.83290  Biso   1.000  N
  C35      1.0000 0.48380  0.66200  0.80300  Biso   1.000  C
  N11      1.0000 0.48020  0.72490  0.77470  Biso   1.000  N
  C36      1.0000 0.45060  0.78320  0.78190  Biso   1.000  C
  N12      1.0000 0.42720  0.77430  0.80900  Biso   1.000  N
  N13      1.0000 0.38080  0.05760  0.61040  Biso   1.000  N
  C37      1.0000 0.38720  0.97050  0.60730  Biso   1.000  C
  H25      1.0000 0.40470  0.93900  0.62990  Biso   1.000  H
  C38      1.0000 0.36560  0.92490  0.56690  Biso   1.000  C
  H26      1.0000 0.37320  0.86630  0.55990  Biso   1.000  H
  C39      1.0000 0.33400  0.96720  0.53880  Biso   1.000  C
  C40      1.0000 0.33050  0.05320  0.54550  Biso   1.000  C
  H27      1.0000 0.31240  0.08720  0.52460  Biso   1.000  H
  C41      1.0000 0.35310  0.09680  0.58320  Biso   1.000  C
  H28      1.0000 0.34740  0.15760  0.58850  Biso   1.000  H
  N14      1.0000 0.31450  0.50250  0.47320  Biso   1.000  N
  C42      1.0000 0.34040  0.55630  0.49700  Biso   1.000  C
  H29      1.0000 0.36340  0.53160  0.51510  Biso   1.000  H
  C43      1.0000 0.33490  0.64970  0.49640  Biso   1.000  C
  H30      1.0000 0.35340  0.68770  0.51460  Biso   1.000  H
  C44      1.0000 0.30320  0.68420  0.46960  Biso   1.000  C
  C45      1.0000 0.27810  0.62600  0.44200  Biso   1.000  C
  H31      1.0000 0.25630  0.64700  0.42070  Biso   1.000  H
  C46      1.0000 0.28710  0.53280  0.44750  Biso   1.000  C
  H32      1.0000 0.27010  0.49180  0.42940  Biso   1.000  H
  N15      1.0000 0.17020  0.03600  0.35390  Biso   1.000  N
  C47      1.0000 0.17840  0.95170  0.34930  Biso   1.000  C
  H33      1.0000 0.16270  0.92000  0.32540  Biso   1.000  H
  C48      1.0000 0.20780  0.90520  0.37630  Biso   1.000  C
  H34      1.0000 0.21270  0.84410  0.37060  Biso   1.000  H
  C49      1.0000 0.23050  0.95010  0.41230  Biso   1.000  C
  C50      1.0000 0.22260  0.03860  0.41890  Biso   1.000  C
  H35      1.0000 0.23760  0.07050  0.44330  Biso   1.000  H
  C51      1.0000 0.19290  0.08040  0.39010  Biso   1.000  C
  H36      1.0000 0.18760  0.14170  0.39490  Biso   1.000  H
  C52      1.0000 0.31120  0.91480  0.50460  Biso   1.000  C
  N16      1.0000 0.32210  0.82920  0.50050  Biso   1.000  N
  C53      1.0000 0.29590  0.78350  0.46820  Biso   1.000  C
  N17      1.0000 0.26740  0.81540  0.43790  Biso   1.000  N
  C54      1.0000 0.26000  0.90740  0.44470  Biso   1.000  C
  N18      1.0000 0.28300  0.95400  0.47800  Biso   1.000  N
  N19      1.0000 0.08190  0.02010  0.30560  Biso   1.000  N
  C55      1.0000 0.06570  0.97210  0.26760  Biso   1.000  C
  H37      1.0000 0.07680  0.97880  0.24170  Biso   1.000  H
  C56      1.0000 0.03390  0.91450  0.26620  Biso   1.000  C
  H38      1.0000 0.02390  0.87980  0.24050  Biso   1.000  H
  C57      1.0000 0.01750  0.91000  0.30420  Biso   1.000  C
  C58      1.0000 0.03320  0.95600  0.34400  Biso   1.000  C
  H39      1.0000 0.02420  0.94700  0.37100  Biso   1.000  H
  C59      1.0000 0.06370  0.01700  0.33970  Biso   1.000  C
  H40      1.0000 0.07170  0.05850  0.36320  Biso   1.000  H
  N20      1.0000 0.85970  0.84040  0.42960  Biso   1.000  N
  C60      1.0000 0.89440  0.88610  0.43350  Biso   1.000  C
  H41      1.0000 0.90150  0.92750  0.45730  Biso   1.000  H
  C61      1.0000 0.91970  0.87430  0.40390  Biso   1.000  C
  H42      1.0000 0.94410  0.90510  0.40810  Biso   1.000  H
  C62      1.0000 0.90860  0.81660  0.36820  Biso   1.000  C
  C63      1.0000 0.87220  0.77300  0.36470  Biso   1.000  C
  H43      1.0000 0.86330  0.73140  0.34140  Biso   1.000  H
  C64      1.0000 0.84900  0.79330  0.39740  Biso   1.000  C
  H44      1.0000 0.82330  0.76790  0.39360  Biso   1.000  H
  N21      1.0000 0.93750  0.48360  0.20200  Biso   1.000  N
  C65      1.0000 0.96540  0.53740  0.20040  Biso   1.000  C
  H45      1.0000 0.98220  0.52640  0.17980  Biso   1.000  H
  C66      1.0000 0.97220  0.61160  0.22750  Biso   1.000  C
  H46      1.0000 0.99480  0.64760  0.22720  Biso   1.000  H
  C67      1.0000 0.94620  0.63500  0.25580  Biso   1.000  C
  C68      1.0000 0.91840  0.57850  0.25920  Biso   1.000  C
  H47      1.0000 0.90120  0.59020  0.27920  Biso   1.000  H
  C69      1.0000 0.91340  0.49510  0.23190  Biso   1.000  C
  H48      1.0000 0.89410  0.45170  0.23520  Biso   1.000  H
  C70      1.0000 0.98430  0.84680  0.30520  Biso   1.000  C
  N22      1.0000 0.96200  0.85970  0.33560  Biso   1.000  N
  C71      1.0000 0.93520  0.80230  0.33630  Biso   1.000  C
  N23      1.0000 0.92670  0.72640  0.31110  Biso   1.000  N
  C72      1.0000 0.95110  0.71550  0.28140  Biso   1.000  C
  N24      1.0000 0.97900  0.77240  0.27650  Biso   1.000  N
  Zn7      1.0000 0.41480  0.88000  0.16200  Biso   1.000  Zn
  Zn8      1.0000 0.30760  0.64700  0.96360  Biso   1.000  Zn
  Zn9      1.0000 0.31460  0.35780  0.46630  Biso   1.000  Zn
  I13      1.0000 0.36820  0.77750  0.19300  Biso   1.000  I
  I14      1.0000 0.46900  0.83600  0.14220  Biso   1.000  I
  I15      1.0000 0.24400  0.70990  0.91820  Biso   1.000  I
  I16      1.0000 0.34060  0.69240  0.03280  Biso   1.000  I
  I17      1.0000 0.35690  0.32790  0.54290  Biso   1.000  I
  I18      1.0000 0.25240  0.28590  0.43450  Biso   1.000  I
  Zn10     1.0000 0.12891  0.89949  0.80643  Biso   1.000  Zn
  Zn11     1.0000 0.92061  0.62881  0.65791  Biso   1.000  Zn
  Zn12     1.0000 0.62882  0.60479  0.30784  Biso   1.000  Zn
  I19      1.0000 0.11281  0.75847  0.84368  Biso   1.000  I
  I20      1.0000 0.15234  0.91064  0.73422  Biso   1.000  I
  I21      1.0000 0.88329  0.74107  0.69567  Biso   1.000  I
  I22      1.0000 0.97731  0.65613  0.61849  Biso   1.000  I
  I23      1.0000 0.65276  0.59392  0.23605  Biso   1.000  I
  I24      1.0000 0.61261  0.74681  0.34417  Biso   1.000  I
  Zn13     1.0000 0.92233  0.37590  0.15758  Biso   1.000  Zn
  Zn14     1.0000 0.82642  0.13884  0.97708  Biso   1.000  Zn
  Zn15     1.0000 0.82761  0.86290  0.47970  Biso   1.000  Zn
  I25      1.0000 0.88309  0.26383  0.19407  Biso   1.000  I
  I26      1.0000 0.97938  0.34865  0.11990  Biso   1.000  I
  I27      1.0000 0.87207  0.16254  0.05211  Biso   1.000  I
  I28      1.0000 0.76226  0.22342  0.94946  Biso   1.000  I
  I29      1.0000 0.87283  0.84375  0.55565  Biso   1.000  I
  I30      1.0000 0.76500  0.77454  0.45391  Biso   1.000  I
  N25      1.0000 0.88310  0.44270  0.10900  Biso   1.000  N
  C73      1.0000 0.85400  0.39970  0.08050  Biso   1.000  C
  H49      1.0000 0.85060  0.33710  0.08380  Biso   1.000  H
  C74      1.0000 0.82940  0.44480  0.04680  Biso   1.000  C
  H50      1.0000 0.80750  0.41610  0.02850  Biso   1.000  H
  C75      1.0000 0.83860  0.53880  0.04050  Biso   1.000  C
  C76      1.0000 0.86510  0.57840  0.06960  Biso   1.000  C
  H51      1.0000 0.86820  0.64160  0.06930  Biso   1.000  H
  C77      1.0000 0.88790  0.52870  0.09980  Biso   1.000  C
  H52      1.0000 0.91020  0.55760  0.11700  Biso   1.000  H
  N26      1.0000 0.81450  0.00590  0.97270  Biso   1.000  N
  C78      1.0000 0.78340  0.96790  0.94300  Biso   1.000  C
  H53      1.0000 0.76520  0.00580  0.92420  Biso   1.000  H
  C79      1.0000 0.77810  0.87500  0.94010  Biso   1.000  C
  H54      1.0000 0.75720  0.85110  0.91860  Biso   1.000  H
  C80      1.0000 0.80230  0.81870  0.96720  Biso   1.000  C
  C81      1.0000 0.83250  0.86120  0.99980  Biso   1.000  C
  H55      1.0000 0.85010  0.82470  0.02000  Biso   1.000  H
  C82      1.0000 0.83670  0.95060  0.00250  Biso   1.000  C
  H56      1.0000 0.85570  0.97570  0.02590  Biso   1.000  H
  N27      1.0000 0.67060  0.46300  0.85330  Biso   1.000  N
  C83      1.0000 0.69320  0.42010  0.88630  Biso   1.000  C
  H57      1.0000 0.68880  0.35780  0.88930  Biso   1.000  H
  C84      1.0000 0.72180  0.45870  0.91570  Biso   1.000  C
  H58      1.0000 0.73720  0.42470  0.93900  Biso   1.000  H
  C85      1.0000 0.72900  0.55280  0.91160  Biso   1.000  C
  C86      1.0000 0.70490  0.59690  0.87920  Biso   1.000  C
  H59      1.0000 0.70720  0.66000  0.87670  Biso   1.000  H
  C87      1.0000 0.67630  0.55100  0.84910  Biso   1.000  C
  H60      1.0000 0.66060  0.58280  0.82520  Biso   1.000  H
  C88      1.0000 0.81210  0.58980  0.00150  Biso   1.000  C
  N28      1.0000 0.81950  0.67550  0.00000  Biso   1.000  N
  C89      1.0000 0.79730  0.72220  0.96880  Biso   1.000  C
  N29      1.0000 0.76680  0.68270  0.93880  Biso   1.000  N
  C90      1.0000 0.76340  0.60150  0.94230  Biso   1.000  C
  N30      1.0000 0.78190  0.54500  0.97380  Biso   1.000  N
  N31      1.0000 0.85810  0.15150  0.92900  Biso   1.000  N
  C91      1.0000 0.85060  0.22210  0.89620  Biso   1.000  C
  H61      1.0000 0.82730  0.25710  0.89410  Biso   1.000  H
  C92      1.0000 0.87560  0.24010  0.86820  Biso   1.000  C
  H62      1.0000 0.87090  0.29020  0.84880  Biso   1.000  H
  C93      1.0000 0.90750  0.18700  0.86780  Biso   1.000  C
  C94      1.0000 0.91350  0.11420  0.89730  Biso   1.000  C
  H63      1.0000 0.93420  0.07270  0.89660  Biso   1.000  H
  C95      1.0000 0.88940  0.10430  0.92690  Biso   1.000  C
  H64      1.0000 0.89590  0.05800  0.94840  Biso   1.000  H
  N32      1.0000 0.08000  0.98260  0.80230  Biso   1.000  N
  C96      1.0000 0.06550  0.99730  0.83720  Biso   1.000  C
  H65      1.0000 0.07830  0.97060  0.86430  Biso   1.000  H
  C97      1.0000 0.03320  0.04820  0.83810  Biso   1.000  C
  H66      1.0000 0.02140  0.04780  0.86370  Biso   1.000  H
  C98      1.0000 0.01760  0.10030  0.80220  Biso   1.000  C
  C99      1.0000 0.03630  0.09080  0.76660  Biso   1.000  C
  H67      1.0000 0.02730  0.12460  0.74030  Biso   1.000  H
  C100     1.0000 0.06800  0.03270  0.76830  Biso   1.000  C
  H68      1.0000 0.08110  0.03020  0.74380  Biso   1.000  H
  N33      1.0000 0.93520  0.52500  0.70330  Biso   1.000  N
  C101     1.0000 0.91090  0.49950  0.72940  Biso   1.000  C
  H69      1.0000 0.88810  0.53540  0.72900  Biso   1.000  H
  C102     1.0000 0.91500  0.43220  0.75470  Biso   1.000  C
  H70      1.0000 0.89770  0.42260  0.77480  Biso   1.000  H
  C103     1.0000 0.94650  0.36980  0.75260  Biso   1.000  C
  C104     1.0000 0.97280  0.38810  0.72530  Biso   1.000  C
  H71      1.0000 0.99370  0.34850  0.72250  Biso   1.000  H
  C105     1.0000 0.96680  0.46810  0.70220  Biso   1.000  C
  H72      1.0000 0.98530  0.48520  0.68460  Biso   1.000  H
  C106     1.0000 0.93190  0.20130  0.83560  Biso   1.000  C
  N34      1.0000 0.96230  0.14160  0.83290  Biso   1.000  N
  C107     1.0000 0.98380  0.16200  0.80300  Biso   1.000  C
  N35      1.0000 0.98020  0.22490  0.77470  Biso   1.000  N
  C108     1.0000 0.95060  0.28320  0.78190  Biso   1.000  C
  N36      1.0000 0.92720  0.27430  0.80900  Biso   1.000  N
  N37      1.0000 0.88080  0.55760  0.61040  Biso   1.000  N
  C109     1.0000 0.88720  0.47050  0.60730  Biso   1.000  C
  H73      1.0000 0.90470  0.43900  0.62990  Biso   1.000  H
  C110     1.0000 0.86560  0.42490  0.56690  Biso   1.000  C
  H74      1.0000 0.87320  0.36630  0.55990  Biso   1.000  H
  C111     1.0000 0.83400  0.46720  0.53880  Biso   1.000  C
  C112     1.0000 0.83050  0.55320  0.54550  Biso   1.000  C
  H75      1.0000 0.81240  0.58720  0.52460  Biso   1.000  H
  C113     1.0000 0.85310  0.59680  0.58320  Biso   1.000  C
  H76      1.0000 0.84740  0.65760  0.58850  Biso   1.000  H
  N38      1.0000 0.81450  0.00250  0.47320  Biso   1.000  N
  C114     1.0000 0.84040  0.05630  0.49700  Biso   1.000  C
  H77      1.0000 0.86340  0.03160  0.51510  Biso   1.000  H
  C115     1.0000 0.83490  0.14970  0.49640  Biso   1.000  C
  H78      1.0000 0.85340  0.18770  0.51460  Biso   1.000  H
  C116     1.0000 0.80320  0.18420  0.46960  Biso   1.000  C
  C117     1.0000 0.77810  0.12600  0.44200  Biso   1.000  C
  H79      1.0000 0.75630  0.14700  0.42070  Biso   1.000  H
  C118     1.0000 0.78710  0.03280  0.44750  Biso   1.000  C
  H80      1.0000 0.77010  0.99180  0.42940  Biso   1.000  H
  N39      1.0000 0.67020  0.53600  0.35390  Biso   1.000  N
  C119     1.0000 0.67840  0.45170  0.34930  Biso   1.000  C
  H81      1.0000 0.66270  0.42000  0.32540  Biso   1.000  H
  C120     1.0000 0.70780  0.40520  0.37630  Biso   1.000  C
  H82      1.0000 0.71270  0.34410  0.37060  Biso   1.000  H
  C121     1.0000 0.73050  0.45010  0.41230  Biso   1.000  C
  C122     1.0000 0.72260  0.53860  0.41890  Biso   1.000  C
  H83      1.0000 0.73760  0.57050  0.44330  Biso   1.000  H
  C123     1.0000 0.69290  0.58040  0.39010  Biso   1.000  C
  H84      1.0000 0.68760  0.64170  0.39490  Biso   1.000  H
  C124     1.0000 0.81120  0.41480  0.50460  Biso   1.000  C
  N40      1.0000 0.82210  0.32920  0.50050  Biso   1.000  N
  C125     1.0000 0.79590  0.28350  0.46820  Biso   1.000  C
  N41      1.0000 0.76740  0.31540  0.43790  Biso   1.000  N
  C126     1.0000 0.76000  0.40740  0.44470  Biso   1.000  C
  N42      1.0000 0.78300  0.45400  0.47800  Biso   1.000  N
  N43      1.0000 0.58190  0.52010  0.30560  Biso   1.000  N
  C127     1.0000 0.56570  0.47210  0.26760  Biso   1.000  C
  H85      1.0000 0.57680  0.47880  0.24170  Biso   1.000  H
  C128     1.0000 0.53390  0.41450  0.26620  Biso   1.000  C
  H86      1.0000 0.52390  0.37980  0.24050  Biso   1.000  H
  C129     1.0000 0.51750  0.41000  0.30420  Biso   1.000  C
  C130     1.0000 0.53320  0.45600  0.34400  Biso   1.000  C
  H87      1.0000 0.52420  0.44700  0.37100  Biso   1.000  H
  C131     1.0000 0.56370  0.51700  0.33970  Biso   1.000  C
  H88      1.0000 0.57170  0.55850  0.36320  Biso   1.000  H
  N44      1.0000 0.35970  0.34040  0.42960  Biso   1.000  N
  C132     1.0000 0.39440  0.38610  0.43350  Biso   1.000  C
  H89      1.0000 0.40150  0.42750  0.45730  Biso   1.000  H
  C133     1.0000 0.41970  0.37430  0.40390  Biso   1.000  C
  H90      1.0000 0.44410  0.40510  0.40810  Biso   1.000  H
  C134     1.0000 0.40860  0.31660  0.36820  Biso   1.000  C
  C135     1.0000 0.37220  0.27300  0.36470  Biso   1.000  C
  H91      1.0000 0.36330  0.23140  0.34140  Biso   1.000  H
  C136     1.0000 0.34900  0.29330  0.39740  Biso   1.000  C
  H92      1.0000 0.32330  0.26790  0.39360  Biso   1.000  H
  N45      1.0000 0.43750  0.98360  0.20200  Biso   1.000  N
  C137     1.0000 0.46540  0.03740  0.20040  Biso   1.000  C
  H93      1.0000 0.48220  0.02640  0.17980  Biso   1.000  H
  C138     1.0000 0.47220  0.11160  0.22750  Biso   1.000  C
  H94      1.0000 0.49480  0.14760  0.22720  Biso   1.000  H
  C139     1.0000 0.44620  0.13500  0.25580  Biso   1.000  C
  C140     1.0000 0.41840  0.07850  0.25920  Biso   1.000  C
  H95      1.0000 0.40120  0.09020  0.27920  Biso   1.000  H
  C141     1.0000 0.41340  0.99510  0.23190  Biso   1.000  C
  H96      1.0000 0.39410  0.95170  0.23520  Biso   1.000  H
  C142     1.0000 0.48430  0.34680  0.30520  Biso   1.000  C
  N46      1.0000 0.46200  0.35970  0.33560  Biso   1.000  N
  C143     1.0000 0.43520  0.30230  0.33630  Biso   1.000  C
  N47      1.0000 0.42670  0.22640  0.31110  Biso   1.000  N
  C144     1.0000 0.45110  0.21550  0.28140  Biso   1.000  C
  N48      1.0000 0.47900  0.27240  0.27650  Biso   1.000  N
  Zn16     1.0000 0.91480  0.38000  0.16200  Biso   1.000  Zn
  Zn17     1.0000 0.80760  0.14700  0.96360  Biso   1.000  Zn
  Zn18     1.0000 0.81460  0.85780  0.46630  Biso   1.000  Zn
  I31      1.0000 0.86820  0.27750  0.19300  Biso   1.000  I
  I32      1.0000 0.96900  0.33600  0.14220  Biso   1.000  I
  I33      1.0000 0.74400  0.20990  0.91820  Biso   1.000  I
  I34      1.0000 0.84060  0.19240  0.03280  Biso   1.000  I
  I35      1.0000 0.85690  0.82790  0.54290  Biso   1.000  I
  I36      1.0000 0.75240  0.78590  0.43450  Biso   1.000  I
  Zn19     1.0000 0.37109  0.39949  0.19357  Biso   1.000  Zn
  Zn20     1.0000 0.57939  0.12881  0.34209  Biso   1.000  Zn
  Zn21     1.0000 0.87118  0.10479  0.69216  Biso   1.000  Zn
  I37      1.0000 0.38719  0.25847  0.15632  Biso   1.000  I
  I38      1.0000 0.34766  0.41064  0.26578  Biso   1.000  I
  I39      1.0000 0.61671  0.24107  0.30433  Biso   1.000  I
  I40      1.0000 0.52269  0.15613  0.38151  Biso   1.000  I
  I41      1.0000 0.84724  0.09392  0.76395  Biso   1.000  I
  I42      1.0000 0.88739  0.24681  0.65583  Biso   1.000  I
  Zn22     1.0000 0.57767  0.87590  0.84242  Biso   1.000  Zn
  Zn23     1.0000 0.67358  0.63884  0.02292  Biso   1.000  Zn
  Zn24     1.0000 0.67239  0.36290  0.52030  Biso   1.000  Zn
  I43      1.0000 0.61691  0.76383  0.80593  Biso   1.000  I
  I44      1.0000 0.52062  0.84865  0.88010  Biso   1.000  I
  I45      1.0000 0.62793  0.66254  0.94789  Biso   1.000  I
  I46      1.0000 0.73774  0.72342  0.05054  Biso   1.000  I
  I47      1.0000 0.62717  0.34375  0.44435  Biso   1.000  I
  I48      1.0000 0.73500  0.27454  0.54609  Biso   1.000  I
  N49      1.0000 0.61690  0.94270  0.89100  Biso   1.000  N
  C145     1.0000 0.64600  0.89970  0.91950  Biso   1.000  C
  H97      1.0000 0.64940  0.83710  0.91620  Biso   1.000  H
  C146     1.0000 0.67060  0.94480  0.95320  Biso   1.000  C
  H98      1.0000 0.69250  0.91610  0.97150  Biso   1.000  H
  C147     1.0000 0.66140  0.03880  0.95950  Biso   1.000  C
  C148     1.0000 0.63490  0.07840  0.93040  Biso   1.000  C
  H99      1.0000 0.63180  0.14160  0.93070  Biso   1.000  H
  C149     1.0000 0.61210  0.02870  0.90020  Biso   1.000  C
  H100     1.0000 0.58980  0.05760  0.88300  Biso   1.000  H
  N50      1.0000 0.68550  0.50590  0.02730  Biso   1.000  N
  C150     1.0000 0.71660  0.46790  0.05700  Biso   1.000  C
  H101     1.0000 0.73480  0.50580  0.07580  Biso   1.000  H
  C151     1.0000 0.72190  0.37500  0.05990  Biso   1.000  C
  H102     1.0000 0.74280  0.35110  0.08140  Biso   1.000  H
  C152     1.0000 0.69770  0.31870  0.03280  Biso   1.000  C
  C153     1.0000 0.66750  0.36120  0.00020  Biso   1.000  C
  H103     1.0000 0.64990  0.32470  0.98000  Biso   1.000  H
  C154     1.0000 0.66330  0.45060  0.99750  Biso   1.000  C
  H104     1.0000 0.64430  0.47570  0.97410  Biso   1.000  H
  N51      1.0000 0.82940  0.96300  0.14670  Biso   1.000  N
  C155     1.0000 0.80680  0.92010  0.11370  Biso   1.000  C
  H105     1.0000 0.81120  0.85780  0.11070  Biso   1.000  H
  C156     1.0000 0.77820  0.95870  0.08430  Biso   1.000  C
  H106     1.0000 0.76280  0.92470  0.06100  Biso   1.000  H
  C157     1.0000 0.77100  0.05280  0.08840  Biso   1.000  C
  C158     1.0000 0.79510  0.09690  0.12080  Biso   1.000  C
  H107     1.0000 0.79280  0.16000  0.12330  Biso   1.000  H
  C159     1.0000 0.82370  0.05100  0.15090  Biso   1.000  C
  H108     1.0000 0.83940  0.08280  0.17480  Biso   1.000  H
  C160     1.0000 0.68790  0.08980  0.99850  Biso   1.000  C
  N52      1.0000 0.68050  0.17550  0.00000  Biso   1.000  N
  C161     1.0000 0.70270  0.22220  0.03120  Biso   1.000  C
  N53      1.0000 0.73320  0.18270  0.06120  Biso   1.000  N
  C162     1.0000 0.73660  0.10150  0.05770  Biso   1.000  C
  N54      1.0000 0.71810  0.04500  0.02620  Biso   1.000  N
  N55      1.0000 0.64190  0.65150  0.07100  Biso   1.000  N
  C163     1.0000 0.64940  0.72210  0.10380  Biso   1.000  C
  H109     1.0000 0.67270  0.75710  0.10590  Biso   1.000  H
  C164     1.0000 0.62440  0.74010  0.13180  Biso   1.000  C
  H110     1.0000 0.62910  0.79020  0.15120  Biso   1.000  H
  C165     1.0000 0.59250  0.68700  0.13220  Biso   1.000  C
  C166     1.0000 0.58650  0.61420  0.10270  Biso   1.000  C
  H111     1.0000 0.56580  0.57270  0.10340  Biso   1.000  H
  C167     1.0000 0.61060  0.60430  0.07310  Biso   1.000  C
  H112     1.0000 0.60410  0.55800  0.05160  Biso   1.000  H
  N56      1.0000 0.42000  0.48260  0.19770  Biso   1.000  N
  C168     1.0000 0.43450  0.49730  0.16280  Biso   1.000  C
  H113     1.0000 0.42170  0.47060  0.13570  Biso   1.000  H
  C169     1.0000 0.46680  0.54820  0.16190  Biso   1.000  C
  H114     1.0000 0.47860  0.54780  0.13630  Biso   1.000  H
  C170     1.0000 0.48240  0.60030  0.19780  Biso   1.000  C
  C171     1.0000 0.46370  0.59080  0.23340  Biso   1.000  C
  H115     1.0000 0.47270  0.62460  0.25970  Biso   1.000  H
  C172     1.0000 0.43200  0.53270  0.23170  Biso   1.000  C
  H116     1.0000 0.41890  0.53020  0.25620  Biso   1.000  H
  N57      1.0000 0.56480  0.02500  0.29670  Biso   1.000  N
  C173     1.0000 0.58910  0.99950  0.27060  Biso   1.000  C
  H117     1.0000 0.61190  0.03540  0.27100  Biso   1.000  H
  C174     1.0000 0.58500  0.93220  0.24530  Biso   1.000  C
  H118     1.0000 0.60230  0.92260  0.22520  Biso   1.000  H
  C175     1.0000 0.55350  0.86980  0.24740  Biso   1.000  C
  C176     1.0000 0.52720  0.88810  0.27470  Biso   1.000  C
  H119     1.0000 0.50630  0.84850  0.27750  Biso   1.000  H
  C177     1.0000 0.53320  0.96810  0.29780  Biso   1.000  C
  H120     1.0000 0.51470  0.98520  0.31540  Biso   1.000  H
  C178     1.0000 0.56810  0.70130  0.16440  Biso   1.000  C
  N58      1.0000 0.53770  0.64160  0.16710  Biso   1.000  N
  C179     1.0000 0.51620  0.66200  0.19700  Biso   1.000  C
  N59      1.0000 0.51980  0.72490  0.22530  Biso   1.000  N
  C180     1.0000 0.54940  0.78320  0.21810  Biso   1.000  C
  N60      1.0000 0.57280  0.77430  0.19100  Biso   1.000  N
  N61      1.0000 0.61920  0.05760  0.38960  Biso   1.000  N
  C181     1.0000 0.61280  0.97050  0.39270  Biso   1.000  C
  H121     1.0000 0.59530  0.93900  0.37010  Biso   1.000  H
  C182     1.0000 0.63440  0.92490  0.43310  Biso   1.000  C
  H122     1.0000 0.62680  0.86630  0.44010  Biso   1.000  H
  C183     1.0000 0.66600  0.96720  0.46120  Biso   1.000  C
  C184     1.0000 0.66950  0.05320  0.45450  Biso   1.000  C
  H123     1.0000 0.68760  0.08720  0.47540  Biso   1.000  H
  C185     1.0000 0.64690  0.09680  0.41680  Biso   1.000  C
  H124     1.0000 0.65260  0.15760  0.41150  Biso   1.000  H
  N62      1.0000 0.68550  0.50250  0.52680  Biso   1.000  N
  C186     1.0000 0.65960  0.55630  0.50300  Biso   1.000  C
  H125     1.0000 0.63660  0.53160  0.48490  Biso   1.000  H
  C187     1.0000 0.66510  0.64970  0.50360  Biso   1.000  C
  H126     1.0000 0.64660  0.68770  0.48540  Biso   1.000  H
  C188     1.0000 0.69680  0.68420  0.53040  Biso   1.000  C
  C189     1.0000 0.72190  0.62600  0.55800  Biso   1.000  C
  H127     1.0000 0.74370  0.64700  0.57930  Biso   1.000  H
  C190     1.0000 0.71290  0.53280  0.55250  Biso   1.000  C
  H128     1.0000 0.72990  0.49180  0.57060  Biso   1.000  H
  N63      1.0000 0.82980  0.03600  0.64610  Biso   1.000  N
  C191     1.0000 0.82160  0.95170  0.65070  Biso   1.000  C
  H129     1.0000 0.83730  0.92000  0.67460  Biso   1.000  H
  C192     1.0000 0.79220  0.90520  0.62370  Biso   1.000  C
  H130     1.0000 0.78730  0.84410  0.62940  Biso   1.000  H
  C193     1.0000 0.76950  0.95010  0.58770  Biso   1.000  C
  C194     1.0000 0.77740  0.03860  0.58110  Biso   1.000  C
  H131     1.0000 0.76240  0.07050  0.55670  Biso   1.000  H
  C195     1.0000 0.80710  0.08040  0.60990  Biso   1.000  C
  H132     1.0000 0.81240  0.14170  0.60510  Biso   1.000  H
  C196     1.0000 0.68880  0.91480  0.49540  Biso   1.000  C
  N64      1.0000 0.67790  0.82920  0.49950  Biso   1.000  N
  C197     1.0000 0.70410  0.78350  0.53180  Biso   1.000  C
  N65      1.0000 0.73260  0.81540  0.56210  Biso   1.000  N
  C198     1.0000 0.74000  0.90740  0.55530  Biso   1.000  C
  N66      1.0000 0.71700  0.95400  0.52200  Biso   1.000  N
  N67      1.0000 0.91810  0.02010  0.69440  Biso   1.000  N
  C199     1.0000 0.93430  0.97210  0.73240  Biso   1.000  C
  H133     1.0000 0.92320  0.97880  0.75830  Biso   1.000  H
  C200     1.0000 0.96610  0.91450  0.73380  Biso   1.000  C
  H134     1.0000 0.97610  0.87980  0.75950  Biso   1.000  H
  C201     1.0000 0.98250  0.91000  0.69580  Biso   1.000  C
  C202     1.0000 0.96680  0.95600  0.65600  Biso   1.000  C
  H135     1.0000 0.97580  0.94700  0.62900  Biso   1.000  H
  C203     1.0000 0.93630  0.01700  0.66030  Biso   1.000  C
  H136     1.0000 0.92830  0.05850  0.63680  Biso   1.000  H
  N68      1.0000 0.14030  0.84040  0.57040  Biso   1.000  N
  C204     1.0000 0.10560  0.88610  0.56650  Biso   1.000  C
  H137     1.0000 0.09850  0.92750  0.54270  Biso   1.000  H
  C205     1.0000 0.08030  0.87430  0.59610  Biso   1.000  C
  H138     1.0000 0.05590  0.90510  0.59190  Biso   1.000  H
  C206     1.0000 0.09140  0.81660  0.63180  Biso   1.000  C
  C207     1.0000 0.12780  0.77300  0.63530  Biso   1.000  C
  H139     1.0000 0.13670  0.73140  0.65860  Biso   1.000  H
  C208     1.0000 0.15100  0.79330  0.60260  Biso   1.000  C
  H140     1.0000 0.17670  0.76790  0.60640  Biso   1.000  H
  N69      1.0000 0.06250  0.48360  0.79800  Biso   1.000  N
  C209     1.0000 0.03460  0.53740  0.79960  Biso   1.000  C
  H141     1.0000 0.01780  0.52640  0.82020  Biso   1.000  H
  C210     1.0000 0.02780  0.61160  0.77250  Biso   1.000  C
  H142     1.0000 0.00520  0.64760  0.77280  Biso   1.000  H
  C211     1.0000 0.05380  0.63500  0.74420  Biso   1.000  C
  C212     1.0000 0.08160  0.57850  0.74080  Biso   1.000  C
  H143     1.0000 0.09880  0.59020  0.72080  Biso   1.000  H
  C213     1.0000 0.08660  0.49510  0.76810  Biso   1.000  C
  H144     1.0000 0.10590  0.45170  0.76480  Biso   1.000  H
  C214     1.0000 0.01570  0.84680  0.69480  Biso   1.000  C
  N70      1.0000 0.03800  0.85970  0.66440  Biso   1.000  N
  C215     1.0000 0.06480  0.80230  0.66370  Biso   1.000  C
  N71      1.0000 0.07330  0.72640  0.68890  Biso   1.000  N
  C216     1.0000 0.04890  0.71550  0.71860  Biso   1.000  C
  N72      1.0000 0.02100  0.77240  0.72350  Biso   1.000  N
  Zn25     1.0000 0.58520  0.88000  0.83800  Biso   1.000  Zn
  Zn26     1.0000 0.69240  0.64700  0.03640  Biso   1.000  Zn
  Zn27     1.0000 0.68540  0.35780  0.53370  Biso   1.000  Zn
  I49      1.0000 0.63180  0.77750  0.80700  Biso   1.000  I
  I50      1.0000 0.53100  0.83600  0.85780  Biso   1.000  I
  I51      1.0000 0.75600  0.70990  0.08180  Biso   1.000  I
  I52      1.0000 0.65940  0.69240  0.96720  Biso   1.000  I
  I53      1.0000 0.64310  0.32790  0.45710  Biso   1.000  I
  I54      1.0000 0.74760  0.28590  0.56550  Biso   1.000  I
  Zn28     1.0000 0.87109  0.89949  0.19357  Biso   1.000  Zn
  Zn29     1.0000 0.07939  0.62881  0.34209  Biso   1.000  Zn
  Zn30     1.0000 0.37118  0.60479  0.69216  Biso   1.000  Zn
  I55      1.0000 0.88719  0.75847  0.15632  Biso   1.000  I
  I56      1.0000 0.84766  0.91064  0.26578  Biso   1.000  I
  I57      1.0000 0.11671  0.74107  0.30433  Biso   1.000  I
  I58      1.0000 0.02269  0.65613  0.38151  Biso   1.000  I
  I59      1.0000 0.34724  0.59392  0.76395  Biso   1.000  I
  I60      1.0000 0.38739  0.74681  0.65583  Biso   1.000  I
  Zn31     1.0000 0.07767  0.37590  0.84242  Biso   1.000  Zn
  Zn32     1.0000 0.17358  0.13884  0.02292  Biso   1.000  Zn
  Zn33     1.0000 0.17239  0.86290  0.52030  Biso   1.000  Zn
  I61      1.0000 0.11691  0.26383  0.80593  Biso   1.000  I
  I62      1.0000 0.02062  0.34865  0.88010  Biso   1.000  I
  I63      1.0000 0.12793  0.16254  0.94789  Biso   1.000  I
  I64      1.0000 0.23774  0.22342  0.05054  Biso   1.000  I
  I65      1.0000 0.12717  0.84375  0.44435  Biso   1.000  I
  I66      1.0000 0.23500  0.77454  0.54609  Biso   1.000  I
  N73      1.0000 0.11690  0.44270  0.89100  Biso   1.000  N
  C217     1.0000 0.14600  0.39970  0.91950  Biso   1.000  C
  H145     1.0000 0.14940  0.33710  0.91620  Biso   1.000  H
  C218     1.0000 0.17060  0.44480  0.95320  Biso   1.000  C
  H146     1.0000 0.19250  0.41610  0.97150  Biso   1.000  H
  C219     1.0000 0.16140  0.53880  0.95950  Biso   1.000  C
  C220     1.0000 0.13490  0.57840  0.93040  Biso   1.000  C
  H147     1.0000 0.13180  0.64160  0.93070  Biso   1.000  H
  C221     1.0000 0.11210  0.52870  0.90020  Biso   1.000  C
  H148     1.0000 0.08980  0.55760  0.88300  Biso   1.000  H
  N74      1.0000 0.18550  0.00590  0.02730  Biso   1.000  N
  C222     1.0000 0.21660  0.96790  0.05700  Biso   1.000  C
  H149     1.0000 0.23480  0.00580  0.07580  Biso   1.000  H
  C223     1.0000 0.22190  0.87500  0.05990  Biso   1.000  C
  H150     1.0000 0.24280  0.85110  0.08140  Biso   1.000  H
  C224     1.0000 0.19770  0.81870  0.03280  Biso   1.000  C
  C225     1.0000 0.16750  0.86120  0.00020  Biso   1.000  C
  H151     1.0000 0.14990  0.82470  0.98000  Biso   1.000  H
  C226     1.0000 0.16330  0.95060  0.99750  Biso   1.000  C
  H152     1.0000 0.14430  0.97570  0.97410  Biso   1.000  H
  N75      1.0000 0.32940  0.46300  0.14670  Biso   1.000  N
  C227     1.0000 0.30680  0.42010  0.11370  Biso   1.000  C
  H153     1.0000 0.31120  0.35780  0.11070  Biso   1.000  H
  C228     1.0000 0.27820  0.45870  0.08430  Biso   1.000  C
  H154     1.0000 0.26280  0.42470  0.06100  Biso   1.000  H
  C229     1.0000 0.27100  0.55280  0.08840  Biso   1.000  C
  C230     1.0000 0.29510  0.59690  0.12080  Biso   1.000  C
  H155     1.0000 0.29280  0.66000  0.12330  Biso   1.000  H
  C231     1.0000 0.32370  0.55100  0.15090  Biso   1.000  C
  H156     1.0000 0.33940  0.58280  0.17480  Biso   1.000  H
  C232     1.0000 0.18790  0.58980  0.99850  Biso   1.000  C
  N76      1.0000 0.18050  0.67550  0.00000  Biso   1.000  N
  C233     1.0000 0.20270  0.72220  0.03120  Biso   1.000  C
  N77      1.0000 0.23320  0.68270  0.06120  Biso   1.000  N
  C234     1.0000 0.23660  0.60150  0.05770  Biso   1.000  C
  N78      1.0000 0.21810  0.54500  0.02620  Biso   1.000  N
  N79      1.0000 0.14190  0.15150  0.07100  Biso   1.000  N
  C235     1.0000 0.14940  0.22210  0.10380  Biso   1.000  C
  H157     1.0000 0.17270  0.25710  0.10590  Biso   1.000  H
  C236     1.0000 0.12440  0.24010  0.13180  Biso   1.000  C
  H158     1.0000 0.12910  0.29020  0.15120  Biso   1.000  H
  C237     1.0000 0.09250  0.18700  0.13220  Biso   1.000  C
  C238     1.0000 0.08650  0.11420  0.10270  Biso   1.000  C
  H159     1.0000 0.06580  0.07270  0.10340  Biso   1.000  H
  C239     1.0000 0.11060  0.10430  0.07310  Biso   1.000  C
  H160     1.0000 0.10410  0.05800  0.05160  Biso   1.000  H
  N80      1.0000 0.92000  0.98260  0.19770  Biso   1.000  N
  C240     1.0000 0.93450  0.99730  0.16280  Biso   1.000  C
  H161     1.0000 0.92170  0.97060  0.13570  Biso   1.000  H
  C241     1.0000 0.96680  0.04820  0.16190  Biso   1.000  C
  H162     1.0000 0.97860  0.04780  0.13630  Biso   1.000  H
  C242     1.0000 0.98240  0.10030  0.19780  Biso   1.000  C
  C243     1.0000 0.96370  0.09080  0.23340  Biso   1.000  C
  H163     1.0000 0.97270  0.12460  0.25970  Biso   1.000  H
  C244     1.0000 0.93200  0.03270  0.23170  Biso   1.000  C
  H164     1.0000 0.91890  0.03020  0.25620  Biso   1.000  H
  N81      1.0000 0.06480  0.52500  0.29670  Biso   1.000  N
  C245     1.0000 0.08910  0.49950  0.27060  Biso   1.000  C
  H165     1.0000 0.11190  0.53540  0.27100  Biso   1.000  H
  C246     1.0000 0.08500  0.43220  0.24530  Biso   1.000  C
  H166     1.0000 0.10230  0.42260  0.22520  Biso   1.000  H
  C247     1.0000 0.05350  0.36980  0.24740  Biso   1.000  C
  C248     1.0000 0.02720  0.38810  0.27470  Biso   1.000  C
  H167     1.0000 0.00630  0.34850  0.27750  Biso   1.000  H
  C249     1.0000 0.03320  0.46810  0.29780  Biso   1.000  C
  H168     1.0000 0.01470  0.48520  0.31540  Biso   1.000  H
  C250     1.0000 0.06810  0.20130  0.16440  Biso   1.000  C
  N82      1.0000 0.03770  0.14160  0.16710  Biso   1.000  N
  C251     1.0000 0.01620  0.16200  0.19700  Biso   1.000  C
  N83      1.0000 0.01980  0.22490  0.22530  Biso   1.000  N
  C252     1.0000 0.04940  0.28320  0.21810  Biso   1.000  C
  N84      1.0000 0.07280  0.27430  0.19100  Biso   1.000  N
  N85      1.0000 0.11920  0.55760  0.38960  Biso   1.000  N
  C253     1.0000 0.11280  0.47050  0.39270  Biso   1.000  C
  H169     1.0000 0.09530  0.43900  0.37010  Biso   1.000  H
  C254     1.0000 0.13440  0.42490  0.43310  Biso   1.000  C
  H170     1.0000 0.12680  0.36630  0.44010  Biso   1.000  H
  C255     1.0000 0.16600  0.46720  0.46120  Biso   1.000  C
  C256     1.0000 0.16950  0.55320  0.45450  Biso   1.000  C
  H171     1.0000 0.18760  0.58720  0.47540  Biso   1.000  H
  C257     1.0000 0.14690  0.59680  0.41680  Biso   1.000  C
  H172     1.0000 0.15260  0.65760  0.41150  Biso   1.000  H
  N86      1.0000 0.18550  0.00250  0.52680  Biso   1.000  N
  C258     1.0000 0.15960  0.05630  0.50300  Biso   1.000  C
  H173     1.0000 0.13660  0.03160  0.48490  Biso   1.000  H
  C259     1.0000 0.16510  0.14970  0.50360  Biso   1.000  C
  H174     1.0000 0.14660  0.18770  0.48540  Biso   1.000  H
  C260     1.0000 0.19680  0.18420  0.53040  Biso   1.000  C
  C261     1.0000 0.22190  0.12600  0.55800  Biso   1.000  C
  H175     1.0000 0.24370  0.14700  0.57930  Biso   1.000  H
  C262     1.0000 0.21290  0.03280  0.55250  Biso   1.000  C
  H176     1.0000 0.22990  0.99180  0.57060  Biso   1.000  H
  N87      1.0000 0.32980  0.53600  0.64610  Biso   1.000  N
  C263     1.0000 0.32160  0.45170  0.65070  Biso   1.000  C
  H177     1.0000 0.33730  0.42000  0.67460  Biso   1.000  H
  C264     1.0000 0.29220  0.40520  0.62370  Biso   1.000  C
  H178     1.0000 0.28730  0.34410  0.62940  Biso   1.000  H
  C265     1.0000 0.26950  0.45010  0.58770  Biso   1.000  C
  C266     1.0000 0.27740  0.53860  0.58110  Biso   1.000  C
  H179     1.0000 0.26240  0.57050  0.55670  Biso   1.000  H
  C267     1.0000 0.30710  0.58040  0.60990  Biso   1.000  C
  H180     1.0000 0.31240  0.64170  0.60510  Biso   1.000  H
  C268     1.0000 0.18880  0.41480  0.49540  Biso   1.000  C
  N88      1.0000 0.17790  0.32920  0.49950  Biso   1.000  N
  C269     1.0000 0.20410  0.28350  0.53180  Biso   1.000  C
  N89      1.0000 0.23260  0.31540  0.56210  Biso   1.000  N
  C270     1.0000 0.24000  0.40740  0.55530  Biso   1.000  C
  N90      1.0000 0.21700  0.45400  0.52200  Biso   1.000  N
  N91      1.0000 0.41810  0.52010  0.69440  Biso   1.000  N
  C271     1.0000 0.43430  0.47210  0.73240  Biso   1.000  C
  H181     1.0000 0.42320  0.47880  0.75830  Biso   1.000  H
  C272     1.0000 0.46610  0.41450  0.73380  Biso   1.000  C
  H182     1.0000 0.47610  0.37980  0.75950  Biso   1.000  H
  C273     1.0000 0.48250  0.41000  0.69580  Biso   1.000  C
  C274     1.0000 0.46680  0.45600  0.65600  Biso   1.000  C
  H183     1.0000 0.47580  0.44700  0.62900  Biso   1.000  H
  C275     1.0000 0.43630  0.51700  0.66030  Biso   1.000  C
  H184     1.0000 0.42830  0.55850  0.63680  Biso   1.000  H
  N92      1.0000 0.64030  0.34040  0.57040  Biso   1.000  N
  C276     1.0000 0.60560  0.38610  0.56650  Biso   1.000  C
  H185     1.0000 0.59850  0.42750  0.54270  Biso   1.000  H
  C277     1.0000 0.58030  0.37430  0.59610  Biso   1.000  C
  H186     1.0000 0.55590  0.40510  0.59190  Biso   1.000  H
  C278     1.0000 0.59140  0.31660  0.63180  Biso   1.000  C
  C279     1.0000 0.62780  0.27300  0.63530  Biso   1.000  C
  H187     1.0000 0.63670  0.23140  0.65860  Biso   1.000  H
  C280     1.0000 0.65100  0.29330  0.60260  Biso   1.000  C
  H188     1.0000 0.67670  0.26790  0.60640  Biso   1.000  H
  N93      1.0000 0.56250  0.98360  0.79800  Biso   1.000  N
  C281     1.0000 0.53460  0.03740  0.79960  Biso   1.000  C
  H189     1.0000 0.51780  0.02640  0.82020  Biso   1.000  H
  C282     1.0000 0.52780  0.11160  0.77250  Biso   1.000  C
  H190     1.0000 0.50520  0.14760  0.77280  Biso   1.000  H
  C283     1.0000 0.55380  0.13500  0.74420  Biso   1.000  C
  C284     1.0000 0.58160  0.07850  0.74080  Biso   1.000  C
  H191     1.0000 0.59880  0.09020  0.72080  Biso   1.000  H
  C285     1.0000 0.58660  0.99510  0.76810  Biso   1.000  C
  H192     1.0000 0.60590  0.95170  0.76480  Biso   1.000  H
  C286     1.0000 0.51570  0.34680  0.69480  Biso   1.000  C
  N94      1.0000 0.53800  0.35970  0.66440  Biso   1.000  N
  C287     1.0000 0.56480  0.30230  0.66370  Biso   1.000  C
  N95      1.0000 0.57330  0.22640  0.68890  Biso   1.000  N
  C288     1.0000 0.54890  0.21550  0.71860  Biso   1.000  C
  N96      1.0000 0.52100  0.27240  0.72350  Biso   1.000  N
  Zn34     1.0000 0.08520  0.38000  0.83800  Biso   1.000  Zn
  Zn35     1.0000 0.19240  0.14700  0.03640  Biso   1.000  Zn
  Zn36     1.0000 0.18540  0.85780  0.53370  Biso   1.000  Zn
  I67      1.0000 0.13180  0.27750  0.80700  Biso   1.000  I
  I68      1.0000 0.03100  0.33600  0.85780  Biso   1.000  I
  I69      1.0000 0.25600  0.20990  0.08180  Biso   1.000  I
  I70      1.0000 0.15940  0.19240  0.96720  Biso   1.000  I
  I71      1.0000 0.14310  0.82790  0.45710  Biso   1.000  I
  I72      1.0000 0.24760  0.78590  0.56550  Biso   1.000  I
