data_image0
_cell_length_a       34.8531
_cell_length_b       14.7838
_cell_length_c       31.0339
_cell_angle_alpha    90
_cell_angle_beta     101.296
_cell_angle_gamma    90

_symmetry_space_group_name_H-M    "P 1"
_symmetry_int_tables_number       1

loop_
  _symmetry_equiv_pos_as_xyz
  'x, y, z'

loop_
  _atom_site_label
  _atom_site_occupancy
  _atom_site_fract_x
  _atom_site_fract_y
  _atom_site_fract_z
  _atom_site_thermal_displace_type
  _atom_site_B_iso_or_equiv
  _atom_site_type_symbol
  Zn1      1.0000 0.62606  0.60176  0.56149  Biso   1.000  Zn
  Zn2      1.0000 0.41578  0.87258  0.41168  Biso   1.000  Zn
  I1       1.0000 0.60849  0.74183  0.59733  Biso   1.000  I
  I2       1.0000 0.47258  0.84239  0.37446  Biso   1.000  I
  N1       1.0000 0.57947  0.51540  0.55797  Biso   1.000  N
  C1       1.0000 0.56522  0.46620  0.52290  Biso   1.000  C
  H1       1.0000 0.57720  0.47040  0.49800  Biso   1.000  H
  C2       1.0000 0.53354  0.40870  0.52110  Biso   1.000  C
  H2       1.0000 0.52440  0.37360  0.49550  Biso   1.000  H
  C3       1.0000 0.51564  0.40290  0.55620  Biso   1.000  C
  C4       1.0000 0.53220  0.44880  0.59420  Biso   1.000  C
  H3       1.0000 0.52200  0.44270  0.62030  Biso   1.000  H
  C5       1.0000 0.56430  0.50400  0.59320  Biso   1.000  C
  H4       1.0000 0.57580  0.53510  0.61940  Biso   1.000  H
  N2       1.0000 0.42946  0.98040  0.45500  Biso   1.000  N
  C6       1.0000 0.46132  0.03080  0.45590  Biso   1.000  C
  H5       1.0000 0.47970  0.01320  0.43860  Biso   1.000  H
  C7       1.0000 0.46829  0.10800  0.48130  Biso   1.000  C
  H6       1.0000 0.49120  0.14290  0.48140  Biso   1.000  H
  C8       1.0000 0.44171  0.13410  0.50660  Biso   1.000  C
  C9       1.0000 0.40900  0.08120  0.50640  Biso   1.000  C
  H7       1.0000 0.39030  0.09700  0.52360  Biso   1.000  H
  C10      1.0000 0.40430  0.00410  0.48020  Biso   1.000  C
  H8       1.0000 0.38220  0.96660  0.48040  Biso   1.000  H
  N3       1.0000 0.36030  0.34580  0.68190  Biso   1.000  N
  C11      1.0000 0.39120  0.39420  0.68150  Biso   1.000  C
  H9       1.0000 0.39720  0.44150  0.70250  Biso   1.000  H
  C12      1.0000 0.41600  0.38090  0.65250  Biso   1.000  C
  H10      1.0000 0.43890  0.41680  0.65440  Biso   1.000  H
  C13      1.0000 0.40730  0.31560  0.62090  Biso   1.000  C
  C14      1.0000 0.37320  0.26910  0.61810  Biso   1.000  C
  H11      1.0000 0.36520  0.22600  0.59540  Biso   1.000  H
  C15      1.0000 0.35020  0.28620  0.64920  Biso   1.000  C
  H12      1.0000 0.32630  0.25390  0.64720  Biso   1.000  H
  C16      1.0000 0.48196  0.34180  0.55680  Biso   1.000  C
  N4       1.0000 0.47591  0.27470  0.52822  Biso   1.000  N
  C17      1.0000 0.44785  0.21740  0.53416  Biso   1.000  C
  N5       1.0000 0.42530  0.22610  0.56364  Biso   1.000  N
  C18      1.0000 0.43207  0.29980  0.58860  Biso   1.000  C
  N6       1.0000 0.46117  0.35890  0.58746  Biso   1.000  N
  N7       1.0000 0.37662  0.93900  0.36262  Biso   1.000  N
  C19      1.0000 0.38130  0.02670  0.35700  Biso   1.000  C
  H13      1.0000 0.40030  0.05820  0.37790  Biso   1.000  H
  C20      1.0000 0.36020  0.07430  0.32250  Biso   1.000  C
  H14      1.0000 0.36440  0.13740  0.31980  Biso   1.000  H
  C21      1.0000 0.33294  0.03000  0.29190  Biso   1.000  C
  C22      1.0000 0.32727  0.93920  0.29780  Biso   1.000  C
  H15      1.0000 0.30840  0.90640  0.27750  Biso   1.000  H
  C23      1.0000 0.34960  0.89620  0.33410  Biso   1.000  C
  H16      1.0000 0.34520  0.83370  0.33850  Biso   1.000  H
  N8       1.0000 0.31523  0.49780  0.22480  Biso   1.000  N
  C24      1.0000 0.28510  0.46480  0.19770  Biso   1.000  C
  H17      1.0000 0.26760  0.50540  0.18000  Biso   1.000  H
  C25      1.0000 0.27760  0.37170  0.19360  Biso   1.000  C
  H18      1.0000 0.25560  0.34920  0.17340  Biso   1.000  H
  C26      1.0000 0.30297  0.31390  0.22000  Biso   1.000  C
  C27      1.0000 0.33450  0.34930  0.24850  Biso   1.000  C
  H19      1.0000 0.35260  0.31080  0.26680  Biso   1.000  H
  C28      1.0000 0.33940  0.44320  0.25020  Biso   1.000  C
  H20      1.0000 0.36080  0.46820  0.27040  Biso   1.000  H
  N9       1.0000 0.16876  0.96160  0.10691  Biso   1.000  N
  C29      1.0000 0.17700  0.04860  0.10210  Biso   1.000  C
  H21      1.0000 0.16160  0.08080  0.07830  Biso   1.000  H
  C30      1.0000 0.20630  0.09440  0.12950  Biso   1.000  C
  H22      1.0000 0.21110  0.15660  0.12490  Biso   1.000  H
  C31      1.0000 0.22885  0.04680  0.16407  Biso   1.000  C
  C32      1.0000 0.22000  0.95750  0.16980  Biso   1.000  C
  H23      1.0000 0.23440  0.92390  0.19370  Biso   1.000  H
  C33      1.0000 0.19011  0.91720  0.14060  Biso   1.000  C
  H24      1.0000 0.18450  0.85520  0.14460  Biso   1.000  H
  C34      1.0000 0.30991  0.08150  0.25455  Biso   1.000  C
  N10      1.0000 0.31926  0.16850  0.25180  Biso   1.000  N
  C35      1.0000 0.29605  0.21490  0.22004  Biso   1.000  C
  N11      1.0000 0.26688  0.17930  0.19006  Biso   1.000  N
  C36      1.0000 0.26083  0.09190  0.19566  Biso   1.000  C
  N12      1.0000 0.28065  0.03940  0.22766  Biso   1.000  N
  I3       1.0000 0.37879  0.76010  0.44888  Biso   1.000  I
  I4       1.0000 0.64640  0.60310  0.49029  Biso   1.000  I
  Zn3      1.0000 0.33036  0.63880  0.23200  Biso   1.000  Zn
  I5       1.0000 0.26821  0.72800  0.20672  Biso   1.000  I
  I6       1.0000 0.37419  0.65370  0.30548  Biso   1.000  I
  Zn4      1.0000 0.32010  0.63170  0.22330  Biso   1.000  Zn
  I7       1.0000 0.25740  0.71320  0.19410  Biso   1.000  I
  I8       1.0000 0.36620  0.77510  0.44610  Biso   1.000  I
  I9       1.0000 0.65119  0.58460  0.48886  Biso   1.000  I
  I10      1.0000 0.36630  0.66780  0.29790  Biso   1.000  I
  Zn5      1.0000 0.12606  0.10176  0.56149  Biso   1.000  Zn
  Zn6      1.0000 0.91578  0.37258  0.41168  Biso   1.000  Zn
  I11      1.0000 0.10849  0.24183  0.59733  Biso   1.000  I
  I12      1.0000 0.97258  0.34239  0.37446  Biso   1.000  I
  N13      1.0000 0.07947  0.01540  0.55797  Biso   1.000  N
  C37      1.0000 0.06522  0.96620  0.52290  Biso   1.000  C
  H25      1.0000 0.07720  0.97040  0.49800  Biso   1.000  H
  C38      1.0000 0.03354  0.90870  0.52110  Biso   1.000  C
  H26      1.0000 0.02440  0.87360  0.49550  Biso   1.000  H
  C39      1.0000 0.01564  0.90290  0.55620  Biso   1.000  C
  C40      1.0000 0.03220  0.94880  0.59420  Biso   1.000  C
  H27      1.0000 0.02200  0.94270  0.62030  Biso   1.000  H
  C41      1.0000 0.06430  0.00400  0.59320  Biso   1.000  C
  H28      1.0000 0.07580  0.03510  0.61940  Biso   1.000  H
  N14      1.0000 0.92946  0.48040  0.45500  Biso   1.000  N
  C42      1.0000 0.96132  0.53080  0.45590  Biso   1.000  C
  H29      1.0000 0.97970  0.51320  0.43860  Biso   1.000  H
  C43      1.0000 0.96829  0.60800  0.48130  Biso   1.000  C
  H30      1.0000 0.99120  0.64290  0.48140  Biso   1.000  H
  C44      1.0000 0.94171  0.63410  0.50660  Biso   1.000  C
  C45      1.0000 0.90900  0.58120  0.50640  Biso   1.000  C
  H31      1.0000 0.89030  0.59700  0.52360  Biso   1.000  H
  C46      1.0000 0.90430  0.50410  0.48020  Biso   1.000  C
  H32      1.0000 0.88220  0.46660  0.48040  Biso   1.000  H
  N15      1.0000 0.86030  0.84580  0.68190  Biso   1.000  N
  C47      1.0000 0.89120  0.89420  0.68150  Biso   1.000  C
  H33      1.0000 0.89720  0.94150  0.70250  Biso   1.000  H
  C48      1.0000 0.91600  0.88090  0.65250  Biso   1.000  C
  H34      1.0000 0.93890  0.91680  0.65440  Biso   1.000  H
  C49      1.0000 0.90730  0.81560  0.62090  Biso   1.000  C
  C50      1.0000 0.87320  0.76910  0.61810  Biso   1.000  C
  H35      1.0000 0.86520  0.72600  0.59540  Biso   1.000  H
  C51      1.0000 0.85020  0.78620  0.64920  Biso   1.000  C
  H36      1.0000 0.82630  0.75390  0.64720  Biso   1.000  H
  C52      1.0000 0.98196  0.84180  0.55680  Biso   1.000  C
  N16      1.0000 0.97591  0.77470  0.52822  Biso   1.000  N
  C53      1.0000 0.94785  0.71740  0.53416  Biso   1.000  C
  N17      1.0000 0.92530  0.72610  0.56364  Biso   1.000  N
  C54      1.0000 0.93207  0.79980  0.58860  Biso   1.000  C
  N18      1.0000 0.96117  0.85890  0.58746  Biso   1.000  N
  N19      1.0000 0.87662  0.43900  0.36262  Biso   1.000  N
  C55      1.0000 0.88130  0.52670  0.35700  Biso   1.000  C
  H37      1.0000 0.90030  0.55820  0.37790  Biso   1.000  H
  C56      1.0000 0.86020  0.57430  0.32250  Biso   1.000  C
  H38      1.0000 0.86440  0.63740  0.31980  Biso   1.000  H
  C57      1.0000 0.83294  0.53000  0.29190  Biso   1.000  C
  C58      1.0000 0.82727  0.43920  0.29780  Biso   1.000  C
  H39      1.0000 0.80840  0.40640  0.27750  Biso   1.000  H
  C59      1.0000 0.84960  0.39620  0.33410  Biso   1.000  C
  H40      1.0000 0.84520  0.33370  0.33850  Biso   1.000  H
  N20      1.0000 0.81523  0.99780  0.22480  Biso   1.000  N
  C60      1.0000 0.78510  0.96480  0.19770  Biso   1.000  C
  H41      1.0000 0.76760  0.00540  0.18000  Biso   1.000  H
  C61      1.0000 0.77760  0.87170  0.19360  Biso   1.000  C
  H42      1.0000 0.75560  0.84920  0.17340  Biso   1.000  H
  C62      1.0000 0.80297  0.81390  0.22000  Biso   1.000  C
  C63      1.0000 0.83450  0.84930  0.24850  Biso   1.000  C
  H43      1.0000 0.85260  0.81080  0.26680  Biso   1.000  H
  C64      1.0000 0.83940  0.94320  0.25020  Biso   1.000  C
  H44      1.0000 0.86080  0.96820  0.27040  Biso   1.000  H
  N21      1.0000 0.66876  0.46160  0.10691  Biso   1.000  N
  C65      1.0000 0.67700  0.54860  0.10210  Biso   1.000  C
  H45      1.0000 0.66160  0.58080  0.07830  Biso   1.000  H
  C66      1.0000 0.70630  0.59440  0.12950  Biso   1.000  C
  H46      1.0000 0.71110  0.65660  0.12490  Biso   1.000  H
  C67      1.0000 0.72885  0.54680  0.16407  Biso   1.000  C
  C68      1.0000 0.72000  0.45750  0.16980  Biso   1.000  C
  H47      1.0000 0.73440  0.42390  0.19370  Biso   1.000  H
  C69      1.0000 0.69011  0.41720  0.14060  Biso   1.000  C
  H48      1.0000 0.68450  0.35520  0.14460  Biso   1.000  H
  C70      1.0000 0.80991  0.58150  0.25455  Biso   1.000  C
  N22      1.0000 0.81926  0.66850  0.25180  Biso   1.000  N
  C71      1.0000 0.79605  0.71490  0.22004  Biso   1.000  C
  N23      1.0000 0.76688  0.67930  0.19006  Biso   1.000  N
  C72      1.0000 0.76083  0.59190  0.19566  Biso   1.000  C
  N24      1.0000 0.78065  0.53940  0.22766  Biso   1.000  N
  I13      1.0000 0.87879  0.26010  0.44888  Biso   1.000  I
  I14      1.0000 0.14640  0.10310  0.49029  Biso   1.000  I
  Zn7      1.0000 0.83036  0.13880  0.23200  Biso   1.000  Zn
  I15      1.0000 0.76821  0.22800  0.20672  Biso   1.000  I
  I16      1.0000 0.87419  0.15370  0.30548  Biso   1.000  I
  Zn8      1.0000 0.82010  0.13170  0.22330  Biso   1.000  Zn
  I17      1.0000 0.75740  0.21320  0.19410  Biso   1.000  I
  I18      1.0000 0.86620  0.27510  0.44610  Biso   1.000  I
  I19      1.0000 0.15119  0.08460  0.48886  Biso   1.000  I
  I20      1.0000 0.86630  0.16780  0.29790  Biso   1.000  I
  Zn9      1.0000 0.62606  0.39824  0.06149  Biso   1.000  Zn
  Zn10     1.0000 0.41578  0.12742  0.91168  Biso   1.000  Zn
  I21      1.0000 0.60849  0.25817  0.09733  Biso   1.000  I
  I22      1.0000 0.47258  0.15761  0.87446  Biso   1.000  I
  N25      1.0000 0.57947  0.48460  0.05797  Biso   1.000  N
  C73      1.0000 0.56522  0.53380  0.02290  Biso   1.000  C
  H49      1.0000 0.57720  0.52960  0.99800  Biso   1.000  H
  C74      1.0000 0.53354  0.59130  0.02110  Biso   1.000  C
  H50      1.0000 0.52440  0.62640  0.99550  Biso   1.000  H
  C75      1.0000 0.51564  0.59710  0.05620  Biso   1.000  C
  C76      1.0000 0.53220  0.55120  0.09420  Biso   1.000  C
  H51      1.0000 0.52200  0.55730  0.12030  Biso   1.000  H
  C77      1.0000 0.56430  0.49600  0.09320  Biso   1.000  C
  H52      1.0000 0.57580  0.46490  0.11940  Biso   1.000  H
  N26      1.0000 0.42946  0.01960  0.95500  Biso   1.000  N
  C78      1.0000 0.46132  0.96920  0.95590  Biso   1.000  C
  H53      1.0000 0.47970  0.98680  0.93860  Biso   1.000  H
  C79      1.0000 0.46829  0.89200  0.98130  Biso   1.000  C
  H54      1.0000 0.49120  0.85710  0.98140  Biso   1.000  H
  C80      1.0000 0.44171  0.86590  0.00660  Biso   1.000  C
  C81      1.0000 0.40900  0.91880  0.00640  Biso   1.000  C
  H55      1.0000 0.39030  0.90300  0.02360  Biso   1.000  H
  C82      1.0000 0.40430  0.99590  0.98020  Biso   1.000  C
  H56      1.0000 0.38220  0.03340  0.98040  Biso   1.000  H
  N27      1.0000 0.36030  0.65420  0.18190  Biso   1.000  N
  C83      1.0000 0.39120  0.60580  0.18150  Biso   1.000  C
  H57      1.0000 0.39720  0.55850  0.20250  Biso   1.000  H
  C84      1.0000 0.41600  0.61910  0.15250  Biso   1.000  C
  H58      1.0000 0.43890  0.58320  0.15440  Biso   1.000  H
  C85      1.0000 0.40730  0.68440  0.12090  Biso   1.000  C
  C86      1.0000 0.37320  0.73090  0.11810  Biso   1.000  C
  H59      1.0000 0.36520  0.77400  0.09540  Biso   1.000  H
  C87      1.0000 0.35020  0.71380  0.14920  Biso   1.000  C
  H60      1.0000 0.32630  0.74610  0.14720  Biso   1.000  H
  C88      1.0000 0.48196  0.65820  0.05680  Biso   1.000  C
  N28      1.0000 0.47591  0.72530  0.02822  Biso   1.000  N
  C89      1.0000 0.44785  0.78260  0.03416  Biso   1.000  C
  N29      1.0000 0.42530  0.77390  0.06364  Biso   1.000  N
  C90      1.0000 0.43207  0.70020  0.08860  Biso   1.000  C
  N30      1.0000 0.46117  0.64110  0.08746  Biso   1.000  N
  N31      1.0000 0.37662  0.06100  0.86262  Biso   1.000  N
  C91      1.0000 0.38130  0.97330  0.85700  Biso   1.000  C
  H61      1.0000 0.40030  0.94180  0.87790  Biso   1.000  H
  C92      1.0000 0.36020  0.92570  0.82250  Biso   1.000  C
  H62      1.0000 0.36440  0.86260  0.81980  Biso   1.000  H
  C93      1.0000 0.33294  0.97000  0.79190  Biso   1.000  C
  C94      1.0000 0.32727  0.06080  0.79780  Biso   1.000  C
  H63      1.0000 0.30840  0.09360  0.77750  Biso   1.000  H
  C95      1.0000 0.34960  0.10380  0.83410  Biso   1.000  C
  H64      1.0000 0.34520  0.16630  0.83850  Biso   1.000  H
  N32      1.0000 0.31523  0.50220  0.72480  Biso   1.000  N
  C96      1.0000 0.28510  0.53520  0.69770  Biso   1.000  C
  H65      1.0000 0.26760  0.49460  0.68000  Biso   1.000  H
  C97      1.0000 0.27760  0.62830  0.69360  Biso   1.000  C
  H66      1.0000 0.25560  0.65080  0.67340  Biso   1.000  H
  C98      1.0000 0.30297  0.68610  0.72000  Biso   1.000  C
  C99      1.0000 0.33450  0.65070  0.74850  Biso   1.000  C
  H67      1.0000 0.35260  0.68920  0.76680  Biso   1.000  H
  C100     1.0000 0.33940  0.55680  0.75020  Biso   1.000  C
  H68      1.0000 0.36080  0.53180  0.77040  Biso   1.000  H
  N33      1.0000 0.16876  0.03840  0.60691  Biso   1.000  N
  C101     1.0000 0.17700  0.95140  0.60210  Biso   1.000  C
  H69      1.0000 0.16160  0.91920  0.57830  Biso   1.000  H
  C102     1.0000 0.20630  0.90560  0.62950  Biso   1.000  C
  H70      1.0000 0.21110  0.84340  0.62490  Biso   1.000  H
  C103     1.0000 0.22885  0.95320  0.66407  Biso   1.000  C
  C104     1.0000 0.22000  0.04250  0.66980  Biso   1.000  C
  H71      1.0000 0.23440  0.07610  0.69370  Biso   1.000  H
  C105     1.0000 0.19011  0.08280  0.64060  Biso   1.000  C
  H72      1.0000 0.18450  0.14480  0.64460  Biso   1.000  H
  C106     1.0000 0.30991  0.91850  0.75455  Biso   1.000  C
  N34      1.0000 0.31926  0.83150  0.75180  Biso   1.000  N
  C107     1.0000 0.29605  0.78510  0.72004  Biso   1.000  C
  N35      1.0000 0.26688  0.82070  0.69006  Biso   1.000  N
  C108     1.0000 0.26083  0.90810  0.69566  Biso   1.000  C
  N36      1.0000 0.28065  0.96060  0.72766  Biso   1.000  N
  I23      1.0000 0.37879  0.23990  0.94888  Biso   1.000  I
  I24      1.0000 0.64640  0.39690  0.99029  Biso   1.000  I
  Zn11     1.0000 0.33036  0.36120  0.73200  Biso   1.000  Zn
  I25      1.0000 0.26821  0.27200  0.70672  Biso   1.000  I
  I26      1.0000 0.37419  0.34630  0.80548  Biso   1.000  I
  Zn12     1.0000 0.32010  0.36830  0.72330  Biso   1.000  Zn
  I27      1.0000 0.25740  0.28680  0.69410  Biso   1.000  I
  I28      1.0000 0.36620  0.22490  0.94610  Biso   1.000  I
  I29      1.0000 0.65119  0.41540  0.98886  Biso   1.000  I
  I30      1.0000 0.36630  0.33220  0.79790  Biso   1.000  I
  Zn13     1.0000 0.12606  0.89824  0.06149  Biso   1.000  Zn
  Zn14     1.0000 0.91578  0.62742  0.91168  Biso   1.000  Zn
  I31      1.0000 0.10849  0.75817  0.09733  Biso   1.000  I
  I32      1.0000 0.97258  0.65761  0.87446  Biso   1.000  I
  N37      1.0000 0.07947  0.98460  0.05797  Biso   1.000  N
  C109     1.0000 0.06522  0.03380  0.02290  Biso   1.000  C
  H73      1.0000 0.07720  0.02960  0.99800  Biso   1.000  H
  C110     1.0000 0.03354  0.09130  0.02110  Biso   1.000  C
  H74      1.0000 0.02440  0.12640  0.99550  Biso   1.000  H
  C111     1.0000 0.01564  0.09710  0.05620  Biso   1.000  C
  C112     1.0000 0.03220  0.05120  0.09420  Biso   1.000  C
  H75      1.0000 0.02200  0.05730  0.12030  Biso   1.000  H
  C113     1.0000 0.06430  0.99600  0.09320  Biso   1.000  C
  H76      1.0000 0.07580  0.96490  0.11940  Biso   1.000  H
  N38      1.0000 0.92946  0.51960  0.95500  Biso   1.000  N
  C114     1.0000 0.96132  0.46920  0.95590  Biso   1.000  C
  H77      1.0000 0.97970  0.48680  0.93860  Biso   1.000  H
  C115     1.0000 0.96829  0.39200  0.98130  Biso   1.000  C
  H78      1.0000 0.99120  0.35710  0.98140  Biso   1.000  H
  C116     1.0000 0.94171  0.36590  0.00660  Biso   1.000  C
  C117     1.0000 0.90900  0.41880  0.00640  Biso   1.000  C
  H79      1.0000 0.89030  0.40300  0.02360  Biso   1.000  H
  C118     1.0000 0.90430  0.49590  0.98020  Biso   1.000  C
  H80      1.0000 0.88220  0.53340  0.98040  Biso   1.000  H
  N39      1.0000 0.86030  0.15420  0.18190  Biso   1.000  N
  C119     1.0000 0.89120  0.10580  0.18150  Biso   1.000  C
  H81      1.0000 0.89720  0.05850  0.20250  Biso   1.000  H
  C120     1.0000 0.91600  0.11910  0.15250  Biso   1.000  C
  H82      1.0000 0.93890  0.08320  0.15440  Biso   1.000  H
  C121     1.0000 0.90730  0.18440  0.12090  Biso   1.000  C
  C122     1.0000 0.87320  0.23090  0.11810  Biso   1.000  C
  H83      1.0000 0.86520  0.27400  0.09540  Biso   1.000  H
  C123     1.0000 0.85020  0.21380  0.14920  Biso   1.000  C
  H84      1.0000 0.82630  0.24610  0.14720  Biso   1.000  H
  C124     1.0000 0.98196  0.15820  0.05680  Biso   1.000  C
  N40      1.0000 0.97591  0.22530  0.02822  Biso   1.000  N
  C125     1.0000 0.94785  0.28260  0.03416  Biso   1.000  C
  N41      1.0000 0.92530  0.27390  0.06364  Biso   1.000  N
  C126     1.0000 0.93207  0.20020  0.08860  Biso   1.000  C
  N42      1.0000 0.96117  0.14110  0.08746  Biso   1.000  N
  N43      1.0000 0.87662  0.56100  0.86262  Biso   1.000  N
  C127     1.0000 0.88130  0.47330  0.85700  Biso   1.000  C
  H85      1.0000 0.90030  0.44180  0.87790  Biso   1.000  H
  C128     1.0000 0.86020  0.42570  0.82250  Biso   1.000  C
  H86      1.0000 0.86440  0.36260  0.81980  Biso   1.000  H
  C129     1.0000 0.83294  0.47000  0.79190  Biso   1.000  C
  C130     1.0000 0.82727  0.56080  0.79780  Biso   1.000  C
  H87      1.0000 0.80840  0.59360  0.77750  Biso   1.000  H
  C131     1.0000 0.84960  0.60380  0.83410  Biso   1.000  C
  H88      1.0000 0.84520  0.66630  0.83850  Biso   1.000  H
  N44      1.0000 0.81523  0.00220  0.72480  Biso   1.000  N
  C132     1.0000 0.78510  0.03520  0.69770  Biso   1.000  C
  H89      1.0000 0.76760  0.99460  0.68000  Biso   1.000  H
  C133     1.0000 0.77760  0.12830  0.69360  Biso   1.000  C
  H90      1.0000 0.75560  0.15080  0.67340  Biso   1.000  H
  C134     1.0000 0.80297  0.18610  0.72000  Biso   1.000  C
  C135     1.0000 0.83450  0.15070  0.74850  Biso   1.000  C
  H91      1.0000 0.85260  0.18920  0.76680  Biso   1.000  H
  C136     1.0000 0.83940  0.05680  0.75020  Biso   1.000  C
  H92      1.0000 0.86080  0.03180  0.77040  Biso   1.000  H
  N45      1.0000 0.66876  0.53840  0.60691  Biso   1.000  N
  C137     1.0000 0.67700  0.45140  0.60210  Biso   1.000  C
  H93      1.0000 0.66160  0.41920  0.57830  Biso   1.000  H
  C138     1.0000 0.70630  0.40560  0.62950  Biso   1.000  C
  H94      1.0000 0.71110  0.34340  0.62490  Biso   1.000  H
  C139     1.0000 0.72885  0.45320  0.66407  Biso   1.000  C
  C140     1.0000 0.72000  0.54250  0.66980  Biso   1.000  C
  H95      1.0000 0.73440  0.57610  0.69370  Biso   1.000  H
  C141     1.0000 0.69011  0.58280  0.64060  Biso   1.000  C
  H96      1.0000 0.68450  0.64480  0.64460  Biso   1.000  H
  C142     1.0000 0.80991  0.41850  0.75455  Biso   1.000  C
  N46      1.0000 0.81926  0.33150  0.75180  Biso   1.000  N
  C143     1.0000 0.79605  0.28510  0.72004  Biso   1.000  C
  N47      1.0000 0.76688  0.32070  0.69006  Biso   1.000  N
  C144     1.0000 0.76083  0.40810  0.69566  Biso   1.000  C
  N48      1.0000 0.78065  0.46060  0.72766  Biso   1.000  N
  I33      1.0000 0.87879  0.73990  0.94888  Biso   1.000  I
  I34      1.0000 0.14640  0.89690  0.99029  Biso   1.000  I
  Zn15     1.0000 0.83036  0.86120  0.73200  Biso   1.000  Zn
  I35      1.0000 0.76821  0.77200  0.70672  Biso   1.000  I
  I36      1.0000 0.87419  0.84630  0.80548  Biso   1.000  I
  Zn16     1.0000 0.82010  0.86830  0.72330  Biso   1.000  Zn
  I37      1.0000 0.75740  0.78680  0.69410  Biso   1.000  I
  I38      1.0000 0.86620  0.72490  0.94610  Biso   1.000  I
  I39      1.0000 0.15119  0.91540  0.98886  Biso   1.000  I
  I40      1.0000 0.86630  0.83220  0.79790  Biso   1.000  I
  Zn17     1.0000 0.37394  0.60176  0.93851  Biso   1.000  Zn
  Zn18     1.0000 0.58422  0.87258  0.08832  Biso   1.000  Zn
  I41      1.0000 0.39151  0.74183  0.90267  Biso   1.000  I
  I42      1.0000 0.52742  0.84239  0.12554  Biso   1.000  I
  N49      1.0000 0.42053  0.51540  0.94203  Biso   1.000  N
  C145     1.0000 0.43478  0.46620  0.97710  Biso   1.000  C
  H97      1.0000 0.42280  0.47040  0.00200  Biso   1.000  H
  C146     1.0000 0.46646  0.40870  0.97890  Biso   1.000  C
  H98      1.0000 0.47560  0.37360  0.00450  Biso   1.000  H
  C147     1.0000 0.48436  0.40290  0.94380  Biso   1.000  C
  C148     1.0000 0.46780  0.44880  0.90580  Biso   1.000  C
  H99      1.0000 0.47800  0.44270  0.87970  Biso   1.000  H
  C149     1.0000 0.43570  0.50400  0.90680  Biso   1.000  C
  H100     1.0000 0.42420  0.53510  0.88060  Biso   1.000  H
  N50      1.0000 0.57054  0.98040  0.04500  Biso   1.000  N
  C150     1.0000 0.53868  0.03080  0.04410  Biso   1.000  C
  H101     1.0000 0.52030  0.01320  0.06140  Biso   1.000  H
  C151     1.0000 0.53171  0.10800  0.01870  Biso   1.000  C
  H102     1.0000 0.50880  0.14290  0.01860  Biso   1.000  H
  C152     1.0000 0.55829  0.13410  0.99340  Biso   1.000  C
  C153     1.0000 0.59100  0.08120  0.99360  Biso   1.000  C
  H103     1.0000 0.60970  0.09700  0.97640  Biso   1.000  H
  C154     1.0000 0.59570  0.00410  0.01980  Biso   1.000  C
  H104     1.0000 0.61780  0.96660  0.01960  Biso   1.000  H
  N51      1.0000 0.63970  0.34580  0.81810  Biso   1.000  N
  C155     1.0000 0.60880  0.39420  0.81850  Biso   1.000  C
  H105     1.0000 0.60280  0.44150  0.79750  Biso   1.000  H
  C156     1.0000 0.58400  0.38090  0.84750  Biso   1.000  C
  H106     1.0000 0.56110  0.41680  0.84560  Biso   1.000  H
  C157     1.0000 0.59270  0.31560  0.87910  Biso   1.000  C
  C158     1.0000 0.62680  0.26910  0.88190  Biso   1.000  C
  H107     1.0000 0.63480  0.22600  0.90460  Biso   1.000  H
  C159     1.0000 0.64980  0.28620  0.85080  Biso   1.000  C
  H108     1.0000 0.67370  0.25390  0.85280  Biso   1.000  H
  C160     1.0000 0.51804  0.34180  0.94320  Biso   1.000  C
  N52      1.0000 0.52409  0.27470  0.97178  Biso   1.000  N
  C161     1.0000 0.55215  0.21740  0.96584  Biso   1.000  C
  N53      1.0000 0.57470  0.22610  0.93636  Biso   1.000  N
  C162     1.0000 0.56793  0.29980  0.91140  Biso   1.000  C
  N54      1.0000 0.53883  0.35890  0.91254  Biso   1.000  N
  N55      1.0000 0.62338  0.93900  0.13738  Biso   1.000  N
  C163     1.0000 0.61870  0.02670  0.14300  Biso   1.000  C
  H109     1.0000 0.59970  0.05820  0.12210  Biso   1.000  H
  C164     1.0000 0.63980  0.07430  0.17750  Biso   1.000  C
  H110     1.0000 0.63560  0.13740  0.18020  Biso   1.000  H
  C165     1.0000 0.66706  0.03000  0.20810  Biso   1.000  C
  C166     1.0000 0.67273  0.93920  0.20220  Biso   1.000  C
  H111     1.0000 0.69160  0.90640  0.22250  Biso   1.000  H
  C167     1.0000 0.65040  0.89620  0.16590  Biso   1.000  C
  H112     1.0000 0.65480  0.83370  0.16150  Biso   1.000  H
  N56      1.0000 0.68477  0.49780  0.27520  Biso   1.000  N
  C168     1.0000 0.71490  0.46480  0.30230  Biso   1.000  C
  H113     1.0000 0.73240  0.50540  0.32000  Biso   1.000  H
  C169     1.0000 0.72240  0.37170  0.30640  Biso   1.000  C
  H114     1.0000 0.74440  0.34920  0.32660  Biso   1.000  H
  C170     1.0000 0.69703  0.31390  0.28000  Biso   1.000  C
  C171     1.0000 0.66550  0.34930  0.25150  Biso   1.000  C
  H115     1.0000 0.64740  0.31080  0.23320  Biso   1.000  H
  C172     1.0000 0.66060  0.44320  0.24980  Biso   1.000  C
  H116     1.0000 0.63920  0.46820  0.22960  Biso   1.000  H
  N57      1.0000 0.83124  0.96160  0.39309  Biso   1.000  N
  C173     1.0000 0.82300  0.04860  0.39790  Biso   1.000  C
  H117     1.0000 0.83840  0.08080  0.42170  Biso   1.000  H
  C174     1.0000 0.79370  0.09440  0.37050  Biso   1.000  C
  H118     1.0000 0.78890  0.15660  0.37510  Biso   1.000  H
  C175     1.0000 0.77115  0.04680  0.33593  Biso   1.000  C
  C176     1.0000 0.78000  0.95750  0.33020  Biso   1.000  C
  H119     1.0000 0.76560  0.92390  0.30630  Biso   1.000  H
  C177     1.0000 0.80989  0.91720  0.35940  Biso   1.000  C
  H120     1.0000 0.81550  0.85520  0.35540  Biso   1.000  H
  C178     1.0000 0.69009  0.08150  0.24545  Biso   1.000  C
  N58      1.0000 0.68074  0.16850  0.24820  Biso   1.000  N
  C179     1.0000 0.70395  0.21490  0.27996  Biso   1.000  C
  N59      1.0000 0.73312  0.17930  0.30994  Biso   1.000  N
  C180     1.0000 0.73917  0.09190  0.30434  Biso   1.000  C
  N60      1.0000 0.71935  0.03940  0.27234  Biso   1.000  N
  I43      1.0000 0.62121  0.76010  0.05112  Biso   1.000  I
  I44      1.0000 0.35360  0.60310  0.00971  Biso   1.000  I
  Zn19     1.0000 0.66964  0.63880  0.26800  Biso   1.000  Zn
  I45      1.0000 0.73179  0.72800  0.29328  Biso   1.000  I
  I46      1.0000 0.62581  0.65370  0.19452  Biso   1.000  I
  Zn20     1.0000 0.67990  0.63170  0.27670  Biso   1.000  Zn
  I47      1.0000 0.74260  0.71320  0.30590  Biso   1.000  I
  I48      1.0000 0.63380  0.77510  0.05390  Biso   1.000  I
  I49      1.0000 0.34881  0.58460  0.01114  Biso   1.000  I
  I50      1.0000 0.63370  0.66780  0.20210  Biso   1.000  I
  Zn21     1.0000 0.87394  0.10176  0.93851  Biso   1.000  Zn
  Zn22     1.0000 0.08422  0.37258  0.08832  Biso   1.000  Zn
  I51      1.0000 0.89151  0.24183  0.90267  Biso   1.000  I
  I52      1.0000 0.02742  0.34239  0.12554  Biso   1.000  I
  N61      1.0000 0.92053  0.01540  0.94203  Biso   1.000  N
  C181     1.0000 0.93478  0.96620  0.97710  Biso   1.000  C
  H121     1.0000 0.92280  0.97040  0.00200  Biso   1.000  H
  C182     1.0000 0.96646  0.90870  0.97890  Biso   1.000  C
  H122     1.0000 0.97560  0.87360  0.00450  Biso   1.000  H
  C183     1.0000 0.98436  0.90290  0.94380  Biso   1.000  C
  C184     1.0000 0.96780  0.94880  0.90580  Biso   1.000  C
  H123     1.0000 0.97800  0.94270  0.87970  Biso   1.000  H
  C185     1.0000 0.93570  0.00400  0.90680  Biso   1.000  C
  H124     1.0000 0.92420  0.03510  0.88060  Biso   1.000  H
  N62      1.0000 0.07054  0.48040  0.04500  Biso   1.000  N
  C186     1.0000 0.03868  0.53080  0.04410  Biso   1.000  C
  H125     1.0000 0.02030  0.51320  0.06140  Biso   1.000  H
  C187     1.0000 0.03171  0.60800  0.01870  Biso   1.000  C
  H126     1.0000 0.00880  0.64290  0.01860  Biso   1.000  H
  C188     1.0000 0.05829  0.63410  0.99340  Biso   1.000  C
  C189     1.0000 0.09100  0.58120  0.99360  Biso   1.000  C
  H127     1.0000 0.10970  0.59700  0.97640  Biso   1.000  H
  C190     1.0000 0.09570  0.50410  0.01980  Biso   1.000  C
  H128     1.0000 0.11780  0.46660  0.01960  Biso   1.000  H
  N63      1.0000 0.13970  0.84580  0.81810  Biso   1.000  N
  C191     1.0000 0.10880  0.89420  0.81850  Biso   1.000  C
  H129     1.0000 0.10280  0.94150  0.79750  Biso   1.000  H
  C192     1.0000 0.08400  0.88090  0.84750  Biso   1.000  C
  H130     1.0000 0.06110  0.91680  0.84560  Biso   1.000  H
  C193     1.0000 0.09270  0.81560  0.87910  Biso   1.000  C
  C194     1.0000 0.12680  0.76910  0.88190  Biso   1.000  C
  H131     1.0000 0.13480  0.72600  0.90460  Biso   1.000  H
  C195     1.0000 0.14980  0.78620  0.85080  Biso   1.000  C
  H132     1.0000 0.17370  0.75390  0.85280  Biso   1.000  H
  C196     1.0000 0.01804  0.84180  0.94320  Biso   1.000  C
  N64      1.0000 0.02409  0.77470  0.97178  Biso   1.000  N
  C197     1.0000 0.05215  0.71740  0.96584  Biso   1.000  C
  N65      1.0000 0.07470  0.72610  0.93636  Biso   1.000  N
  C198     1.0000 0.06793  0.79980  0.91140  Biso   1.000  C
  N66      1.0000 0.03883  0.85890  0.91254  Biso   1.000  N
  N67      1.0000 0.12338  0.43900  0.13738  Biso   1.000  N
  C199     1.0000 0.11870  0.52670  0.14300  Biso   1.000  C
  H133     1.0000 0.09970  0.55820  0.12210  Biso   1.000  H
  C200     1.0000 0.13980  0.57430  0.17750  Biso   1.000  C
  H134     1.0000 0.13560  0.63740  0.18020  Biso   1.000  H
  C201     1.0000 0.16706  0.53000  0.20810  Biso   1.000  C
  C202     1.0000 0.17273  0.43920  0.20220  Biso   1.000  C
  H135     1.0000 0.19160  0.40640  0.22250  Biso   1.000  H
  C203     1.0000 0.15040  0.39620  0.16590  Biso   1.000  C
  H136     1.0000 0.15480  0.33370  0.16150  Biso   1.000  H
  N68      1.0000 0.18477  0.99780  0.27520  Biso   1.000  N
  C204     1.0000 0.21490  0.96480  0.30230  Biso   1.000  C
  H137     1.0000 0.23240  0.00540  0.32000  Biso   1.000  H
  C205     1.0000 0.22240  0.87170  0.30640  Biso   1.000  C
  H138     1.0000 0.24440  0.84920  0.32660  Biso   1.000  H
  C206     1.0000 0.19703  0.81390  0.28000  Biso   1.000  C
  C207     1.0000 0.16550  0.84930  0.25150  Biso   1.000  C
  H139     1.0000 0.14740  0.81080  0.23320  Biso   1.000  H
  C208     1.0000 0.16060  0.94320  0.24980  Biso   1.000  C
  H140     1.0000 0.13920  0.96820  0.22960  Biso   1.000  H
  N69      1.0000 0.33124  0.46160  0.39309  Biso   1.000  N
  C209     1.0000 0.32300  0.54860  0.39790  Biso   1.000  C
  H141     1.0000 0.33840  0.58080  0.42170  Biso   1.000  H
  C210     1.0000 0.29370  0.59440  0.37050  Biso   1.000  C
  H142     1.0000 0.28890  0.65660  0.37510  Biso   1.000  H
  C211     1.0000 0.27115  0.54680  0.33593  Biso   1.000  C
  C212     1.0000 0.28000  0.45750  0.33020  Biso   1.000  C
  H143     1.0000 0.26560  0.42390  0.30630  Biso   1.000  H
  C213     1.0000 0.30989  0.41720  0.35940  Biso   1.000  C
  H144     1.0000 0.31550  0.35520  0.35540  Biso   1.000  H
  C214     1.0000 0.19009  0.58150  0.24545  Biso   1.000  C
  N70      1.0000 0.18074  0.66850  0.24820  Biso   1.000  N
  C215     1.0000 0.20395  0.71490  0.27996  Biso   1.000  C
  N71      1.0000 0.23312  0.67930  0.30994  Biso   1.000  N
  C216     1.0000 0.23917  0.59190  0.30434  Biso   1.000  C
  N72      1.0000 0.21935  0.53940  0.27234  Biso   1.000  N
  I53      1.0000 0.12121  0.26010  0.05112  Biso   1.000  I
  I54      1.0000 0.85360  0.10310  0.00971  Biso   1.000  I
  Zn23     1.0000 0.16964  0.13880  0.26800  Biso   1.000  Zn
  I55      1.0000 0.23179  0.22800  0.29328  Biso   1.000  I
  I56      1.0000 0.12581  0.15370  0.19452  Biso   1.000  I
  Zn24     1.0000 0.17990  0.13170  0.27670  Biso   1.000  Zn
  I57      1.0000 0.24260  0.21320  0.30590  Biso   1.000  I
  I58      1.0000 0.13380  0.27510  0.05390  Biso   1.000  I
  I59      1.0000 0.84881  0.08460  0.01114  Biso   1.000  I
  I60      1.0000 0.13370  0.16780  0.20210  Biso   1.000  I
  Zn25     1.0000 0.37394  0.39824  0.43851  Biso   1.000  Zn
  Zn26     1.0000 0.58422  0.12742  0.58832  Biso   1.000  Zn
  I61      1.0000 0.39151  0.25817  0.40267  Biso   1.000  I
  I62      1.0000 0.52742  0.15761  0.62554  Biso   1.000  I
  N73      1.0000 0.42053  0.48460  0.44203  Biso   1.000  N
  C217     1.0000 0.43478  0.53380  0.47710  Biso   1.000  C
  H145     1.0000 0.42280  0.52960  0.50200  Biso   1.000  H
  C218     1.0000 0.46646  0.59130  0.47890  Biso   1.000  C
  H146     1.0000 0.47560  0.62640  0.50450  Biso   1.000  H
  C219     1.0000 0.48436  0.59710  0.44380  Biso   1.000  C
  C220     1.0000 0.46780  0.55120  0.40580  Biso   1.000  C
  H147     1.0000 0.47800  0.55730  0.37970  Biso   1.000  H
  C221     1.0000 0.43570  0.49600  0.40680  Biso   1.000  C
  H148     1.0000 0.42420  0.46490  0.38060  Biso   1.000  H
  N74      1.0000 0.57054  0.01960  0.54500  Biso   1.000  N
  C222     1.0000 0.53868  0.96920  0.54410  Biso   1.000  C
  H149     1.0000 0.52030  0.98680  0.56140  Biso   1.000  H
  C223     1.0000 0.53171  0.89200  0.51870  Biso   1.000  C
  H150     1.0000 0.50880  0.85710  0.51860  Biso   1.000  H
  C224     1.0000 0.55829  0.86590  0.49340  Biso   1.000  C
  C225     1.0000 0.59100  0.91880  0.49360  Biso   1.000  C
  H151     1.0000 0.60970  0.90300  0.47640  Biso   1.000  H
  C226     1.0000 0.59570  0.99590  0.51980  Biso   1.000  C
  H152     1.0000 0.61780  0.03340  0.51960  Biso   1.000  H
  N75      1.0000 0.63970  0.65420  0.31810  Biso   1.000  N
  C227     1.0000 0.60880  0.60580  0.31850  Biso   1.000  C
  H153     1.0000 0.60280  0.55850  0.29750  Biso   1.000  H
  C228     1.0000 0.58400  0.61910  0.34750  Biso   1.000  C
  H154     1.0000 0.56110  0.58320  0.34560  Biso   1.000  H
  C229     1.0000 0.59270  0.68440  0.37910  Biso   1.000  C
  C230     1.0000 0.62680  0.73090  0.38190  Biso   1.000  C
  H155     1.0000 0.63480  0.77400  0.40460  Biso   1.000  H
  C231     1.0000 0.64980  0.71380  0.35080  Biso   1.000  C
  H156     1.0000 0.67370  0.74610  0.35280  Biso   1.000  H
  C232     1.0000 0.51804  0.65820  0.44320  Biso   1.000  C
  N76      1.0000 0.52409  0.72530  0.47178  Biso   1.000  N
  C233     1.0000 0.55215  0.78260  0.46584  Biso   1.000  C
  N77      1.0000 0.57470  0.77390  0.43636  Biso   1.000  N
  C234     1.0000 0.56793  0.70020  0.41140  Biso   1.000  C
  N78      1.0000 0.53883  0.64110  0.41254  Biso   1.000  N
  N79      1.0000 0.62338  0.06100  0.63738  Biso   1.000  N
  C235     1.0000 0.61870  0.97330  0.64300  Biso   1.000  C
  H157     1.0000 0.59970  0.94180  0.62210  Biso   1.000  H
  C236     1.0000 0.63980  0.92570  0.67750  Biso   1.000  C
  H158     1.0000 0.63560  0.86260  0.68020  Biso   1.000  H
  C237     1.0000 0.66706  0.97000  0.70810  Biso   1.000  C
  C238     1.0000 0.67273  0.06080  0.70220  Biso   1.000  C
  H159     1.0000 0.69160  0.09360  0.72250  Biso   1.000  H
  C239     1.0000 0.65040  0.10380  0.66590  Biso   1.000  C
  H160     1.0000 0.65480  0.16630  0.66150  Biso   1.000  H
  N80      1.0000 0.68477  0.50220  0.77520  Biso   1.000  N
  C240     1.0000 0.71490  0.53520  0.80230  Biso   1.000  C
  H161     1.0000 0.73240  0.49460  0.82000  Biso   1.000  H
  C241     1.0000 0.72240  0.62830  0.80640  Biso   1.000  C
  H162     1.0000 0.74440  0.65080  0.82660  Biso   1.000  H
  C242     1.0000 0.69703  0.68610  0.78000  Biso   1.000  C
  C243     1.0000 0.66550  0.65070  0.75150  Biso   1.000  C
  H163     1.0000 0.64740  0.68920  0.73320  Biso   1.000  H
  C244     1.0000 0.66060  0.55680  0.74980  Biso   1.000  C
  H164     1.0000 0.63920  0.53180  0.72960  Biso   1.000  H
  N81      1.0000 0.83124  0.03840  0.89309  Biso   1.000  N
  C245     1.0000 0.82300  0.95140  0.89790  Biso   1.000  C
  H165     1.0000 0.83840  0.91920  0.92170  Biso   1.000  H
  C246     1.0000 0.79370  0.90560  0.87050  Biso   1.000  C
  H166     1.0000 0.78890  0.84340  0.87510  Biso   1.000  H
  C247     1.0000 0.77115  0.95320  0.83593  Biso   1.000  C
  C248     1.0000 0.78000  0.04250  0.83020  Biso   1.000  C
  H167     1.0000 0.76560  0.07610  0.80630  Biso   1.000  H
  C249     1.0000 0.80989  0.08280  0.85940  Biso   1.000  C
  H168     1.0000 0.81550  0.14480  0.85540  Biso   1.000  H
  C250     1.0000 0.69009  0.91850  0.74545  Biso   1.000  C
  N82      1.0000 0.68074  0.83150  0.74820  Biso   1.000  N
  C251     1.0000 0.70395  0.78510  0.77996  Biso   1.000  C
  N83      1.0000 0.73312  0.82070  0.80994  Biso   1.000  N
  C252     1.0000 0.73917  0.90810  0.80434  Biso   1.000  C
  N84      1.0000 0.71935  0.96060  0.77234  Biso   1.000  N
  I63      1.0000 0.62121  0.23990  0.55112  Biso   1.000  I
  I64      1.0000 0.35360  0.39690  0.50971  Biso   1.000  I
  Zn27     1.0000 0.66964  0.36120  0.76800  Biso   1.000  Zn
  I65      1.0000 0.73179  0.27200  0.79328  Biso   1.000  I
  I66      1.0000 0.62581  0.34630  0.69452  Biso   1.000  I
  Zn28     1.0000 0.67990  0.36830  0.77670  Biso   1.000  Zn
  I67      1.0000 0.74260  0.28680  0.80590  Biso   1.000  I
  I68      1.0000 0.63380  0.22490  0.55390  Biso   1.000  I
  I69      1.0000 0.34881  0.41540  0.51114  Biso   1.000  I
  I70      1.0000 0.63370  0.33220  0.70210  Biso   1.000  I
  Zn29     1.0000 0.87394  0.89824  0.43851  Biso   1.000  Zn
  Zn30     1.0000 0.08422  0.62742  0.58832  Biso   1.000  Zn
  I71      1.0000 0.89151  0.75817  0.40267  Biso   1.000  I
  I72      1.0000 0.02742  0.65761  0.62554  Biso   1.000  I
  N85      1.0000 0.92053  0.98460  0.44203  Biso   1.000  N
  C253     1.0000 0.93478  0.03380  0.47710  Biso   1.000  C
  H169     1.0000 0.92280  0.02960  0.50200  Biso   1.000  H
  C254     1.0000 0.96646  0.09130  0.47890  Biso   1.000  C
  H170     1.0000 0.97560  0.12640  0.50450  Biso   1.000  H
  C255     1.0000 0.98436  0.09710  0.44380  Biso   1.000  C
  C256     1.0000 0.96780  0.05120  0.40580  Biso   1.000  C
  H171     1.0000 0.97800  0.05730  0.37970  Biso   1.000  H
  C257     1.0000 0.93570  0.99600  0.40680  Biso   1.000  C
  H172     1.0000 0.92420  0.96490  0.38060  Biso   1.000  H
  N86      1.0000 0.07054  0.51960  0.54500  Biso   1.000  N
  C258     1.0000 0.03868  0.46920  0.54410  Biso   1.000  C
  H173     1.0000 0.02030  0.48680  0.56140  Biso   1.000  H
  C259     1.0000 0.03171  0.39200  0.51870  Biso   1.000  C
  H174     1.0000 0.00880  0.35710  0.51860  Biso   1.000  H
  C260     1.0000 0.05829  0.36590  0.49340  Biso   1.000  C
  C261     1.0000 0.09100  0.41880  0.49360  Biso   1.000  C
  H175     1.0000 0.10970  0.40300  0.47640  Biso   1.000  H
  C262     1.0000 0.09570  0.49590  0.51980  Biso   1.000  C
  H176     1.0000 0.11780  0.53340  0.51960  Biso   1.000  H
  N87      1.0000 0.13970  0.15420  0.31810  Biso   1.000  N
  C263     1.0000 0.10880  0.10580  0.31850  Biso   1.000  C
  H177     1.0000 0.10280  0.05850  0.29750  Biso   1.000  H
  C264     1.0000 0.08400  0.11910  0.34750  Biso   1.000  C
  H178     1.0000 0.06110  0.08320  0.34560  Biso   1.000  H
  C265     1.0000 0.09270  0.18440  0.37910  Biso   1.000  C
  C266     1.0000 0.12680  0.23090  0.38190  Biso   1.000  C
  H179     1.0000 0.13480  0.27400  0.40460  Biso   1.000  H
  C267     1.0000 0.14980  0.21380  0.35080  Biso   1.000  C
  H180     1.0000 0.17370  0.24610  0.35280  Biso   1.000  H
  C268     1.0000 0.01804  0.15820  0.44320  Biso   1.000  C
  N88      1.0000 0.02409  0.22530  0.47178  Biso   1.000  N
  C269     1.0000 0.05215  0.28260  0.46584  Biso   1.000  C
  N89      1.0000 0.07470  0.27390  0.43636  Biso   1.000  N
  C270     1.0000 0.06793  0.20020  0.41140  Biso   1.000  C
  N90      1.0000 0.03883  0.14110  0.41254  Biso   1.000  N
  N91      1.0000 0.12338  0.56100  0.63738  Biso   1.000  N
  C271     1.0000 0.11870  0.47330  0.64300  Biso   1.000  C
  H181     1.0000 0.09970  0.44180  0.62210  Biso   1.000  H
  C272     1.0000 0.13980  0.42570  0.67750  Biso   1.000  C
  H182     1.0000 0.13560  0.36260  0.68020  Biso   1.000  H
  C273     1.0000 0.16706  0.47000  0.70810  Biso   1.000  C
  C274     1.0000 0.17273  0.56080  0.70220  Biso   1.000  C
  H183     1.0000 0.19160  0.59360  0.72250  Biso   1.000  H
  C275     1.0000 0.15040  0.60380  0.66590  Biso   1.000  C
  H184     1.0000 0.15480  0.66630  0.66150  Biso   1.000  H
  N92      1.0000 0.18477  0.00220  0.77520  Biso   1.000  N
  C276     1.0000 0.21490  0.03520  0.80230  Biso   1.000  C
  H185     1.0000 0.23240  0.99460  0.82000  Biso   1.000  H
  C277     1.0000 0.22240  0.12830  0.80640  Biso   1.000  C
  H186     1.0000 0.24440  0.15080  0.82660  Biso   1.000  H
  C278     1.0000 0.19703  0.18610  0.78000  Biso   1.000  C
  C279     1.0000 0.16550  0.15070  0.75150  Biso   1.000  C
  H187     1.0000 0.14740  0.18920  0.73320  Biso   1.000  H
  C280     1.0000 0.16060  0.05680  0.74980  Biso   1.000  C
  H188     1.0000 0.13920  0.03180  0.72960  Biso   1.000  H
  N93      1.0000 0.33124  0.53840  0.89309  Biso   1.000  N
  C281     1.0000 0.32300  0.45140  0.89790  Biso   1.000  C
  H189     1.0000 0.33840  0.41920  0.92170  Biso   1.000  H
  C282     1.0000 0.29370  0.40560  0.87050  Biso   1.000  C
  H190     1.0000 0.28890  0.34340  0.87510  Biso   1.000  H
  C283     1.0000 0.27115  0.45320  0.83593  Biso   1.000  C
  C284     1.0000 0.28000  0.54250  0.83020  Biso   1.000  C
  H191     1.0000 0.26560  0.57610  0.80630  Biso   1.000  H
  C285     1.0000 0.30989  0.58280  0.85940  Biso   1.000  C
  H192     1.0000 0.31550  0.64480  0.85540  Biso   1.000  H
  C286     1.0000 0.19009  0.41850  0.74545  Biso   1.000  C
  N94      1.0000 0.18074  0.33150  0.74820  Biso   1.000  N
  C287     1.0000 0.20395  0.28510  0.77996  Biso   1.000  C
  N95      1.0000 0.23312  0.32070  0.80994  Biso   1.000  N
  C288     1.0000 0.23917  0.40810  0.80434  Biso   1.000  C
  N96      1.0000 0.21935  0.46060  0.77234  Biso   1.000  N
  I73      1.0000 0.12121  0.73990  0.55112  Biso   1.000  I
  I74      1.0000 0.85360  0.89690  0.50971  Biso   1.000  I
  Zn31     1.0000 0.16964  0.86120  0.76800  Biso   1.000  Zn
  I75      1.0000 0.23179  0.77200  0.79328  Biso   1.000  I
  I76      1.0000 0.12581  0.84630  0.69452  Biso   1.000  I
  Zn32     1.0000 0.17990  0.86830  0.77670  Biso   1.000  Zn
  I77      1.0000 0.24260  0.78680  0.80590  Biso   1.000  I
  I78      1.0000 0.13380  0.72490  0.55390  Biso   1.000  I
  I79      1.0000 0.84881  0.91540  0.51114  Biso   1.000  I
  I80      1.0000 0.13370  0.83220  0.70210  Biso   1.000  I
