data_image0
_cell_length_a       34.9245
_cell_length_b       14.9263
_cell_length_c       29.7839
_cell_angle_alpha    90
_cell_angle_beta     101.228
_cell_angle_gamma    90

_symmetry_space_group_name_H-M    "P 1"
_symmetry_int_tables_number       1

loop_
  _symmetry_equiv_pos_as_xyz
  'x, y, z'

loop_
  _atom_site_label
  _atom_site_occupancy
  _atom_site_fract_x
  _atom_site_fract_y
  _atom_site_fract_z
  _atom_site_thermal_displace_type
  _atom_site_B_iso_or_equiv
  _atom_site_type_symbol
  Zn1      1.0000 0.92093  0.63095  0.90887  Biso   1.000  Zn
  I1       1.0000 0.88566  0.74368  0.94919  Biso   1.000  I
  I2       1.0000 0.97514  0.65440  0.86524  Biso   1.000  I
  N1       1.0000 0.88023  0.55950  0.86222  Biso   1.000  N
  C1       1.0000 0.85079  0.59800  0.83500  Biso   1.000  C
  H1       1.0000 0.84530  0.65910  0.84030  Biso   1.000  H
  C2       1.0000 0.82747  0.55430  0.79930  Biso   1.000  C
  H2       1.0000 0.80680  0.58510  0.78000  Biso   1.000  H
  C3       1.0000 0.83439  0.46510  0.79160  Biso   1.000  C
  C4       1.0000 0.86400  0.42350  0.82190  Biso   1.000  C
  H3       1.0000 0.86880  0.36130  0.81930  Biso   1.000  H
  C5       1.0000 0.88620  0.47290  0.85550  Biso   1.000  C
  H4       1.0000 0.90710  0.44400  0.87540  Biso   1.000  H
  N2       1.0000 0.66997  0.53590  0.60208  Biso   1.000  N
  C6       1.0000 0.69018  0.57800  0.63850  Biso   1.000  C
  H5       1.0000 0.68370  0.63820  0.64410  Biso   1.000  H
  C7       1.0000 0.71998  0.53780  0.66830  Biso   1.000  C
  H6       1.0000 0.73430  0.57030  0.69350  Biso   1.000  H
  C8       1.0000 0.72910  0.44850  0.66140  Biso   1.000  C
  C9       1.0000 0.70817  0.40440  0.62370  Biso   1.000  C
  H7       1.0000 0.71370  0.34370  0.61780  Biso   1.000  H
  C10      1.0000 0.67893  0.45060  0.59460  Biso   1.000  C
  H8       1.0000 0.66470  0.42060  0.56850  Biso   1.000  H
  N3       1.0000 0.81447  0.99930  0.72257  Biso   1.000  N
  C11      1.0000 0.84050  0.05490  0.74740  Biso   1.000  C
  H9       1.0000 0.86260  0.03030  0.76730  Biso   1.000  H
  C12      1.0000 0.83610  0.14750  0.74490  Biso   1.000  C
  H10      1.0000 0.85530  0.18570  0.76200  Biso   1.000  H
  C13      1.0000 0.80346  0.18290  0.71710  Biso   1.000  C
  C14      1.0000 0.77735  0.12550  0.69120  Biso   1.000  C
  H11      1.0000 0.75510  0.14820  0.67080  Biso   1.000  H
  C15      1.0000 0.78378  0.03390  0.69530  Biso   1.000  C
  H12      1.0000 0.76530  0.99460  0.67770  Biso   1.000  H
  C16      1.0000 0.81071  0.41330  0.75385  Biso   1.000  C
  N4       1.0000 0.78123  0.45450  0.72688  Biso   1.000  N
  C17      1.0000 0.76141  0.40360  0.69362  Biso   1.000  C
  N5       1.0000 0.76738  0.31660  0.68708  Biso   1.000  N
  C18      1.0000 0.79682  0.28160  0.71770  Biso   1.000  C
  N6       1.0000 0.82037  0.32680  0.75010  Biso   1.000  N
  N7       1.0000 0.58103  0.51350  0.55293  Biso   1.000  N
  C19      1.0000 0.56740  0.50140  0.59110  Biso   1.000  C
  H13      1.0000 0.57990  0.53140  0.61820  Biso   1.000  H
  C20      1.0000 0.53580  0.44670  0.59310  Biso   1.000  C
  H14      1.0000 0.52610  0.44040  0.62070  Biso   1.000  H
  C21      1.0000 0.51859  0.40130  0.55360  Biso   1.000  C
  C22      1.0000 0.53331  0.41180  0.51480  Biso   1.000  C
  H15      1.0000 0.52190  0.38060  0.48760  Biso   1.000  H
  C23      1.0000 0.56502  0.46820  0.51490  Biso   1.000  C
  H16      1.0000 0.57540  0.47470  0.48790  Biso   1.000  H
  N8       1.0000 0.35999  0.34390  0.68139  Biso   1.000  N
  C24      1.0000 0.39290  0.39020  0.68460  Biso   1.000  C
  H17      1.0000 0.39900  0.43410  0.70810  Biso   1.000  H
  C25      1.0000 0.41860  0.37730  0.65540  Biso   1.000  C
  H18      1.0000 0.44200  0.41130  0.65880  Biso   1.000  H
  C26      1.0000 0.40981  0.31420  0.62120  Biso   1.000  C
  C27      1.0000 0.37500  0.26660  0.61720  Biso   1.000  C
  H19      1.0000 0.36780  0.22280  0.59390  Biso   1.000  H
  C28      1.0000 0.35110  0.28480  0.64800  Biso   1.000  C
  H20      1.0000 0.32720  0.25320  0.64510  Biso   1.000  H
  N9       1.0000 0.43837  0.97290  0.45486  Biso   1.000  N
  C29      1.0000 0.46636  0.03140  0.45064  Biso   1.000  C
  H21      1.0000 0.48280  0.01840  0.42950  Biso   1.000  H
  C30      1.0000 0.47257  0.10940  0.47538  Biso   1.000  C
  H22      1.0000 0.49270  0.14960  0.47120  Biso   1.000  H
  C31      1.0000 0.44901  0.12830  0.50644  Biso   1.000  C
  C32      1.0000 0.42110  0.06670  0.51280  Biso   1.000  C
  H23      1.0000 0.40520  0.07750  0.53470  Biso   1.000  H
  C33      1.0000 0.41650  0.98960  0.48720  Biso   1.000  C
  H24      1.0000 0.39770  0.94680  0.49210  Biso   1.000  H
  C34      1.0000 0.48563  0.33980  0.55579  Biso   1.000  C
  N10      1.0000 0.46410  0.35660  0.58718  Biso   1.000  N
  C35      1.0000 0.43576  0.29820  0.58850  Biso   1.000  C
  N11      1.0000 0.42955  0.22340  0.56277  Biso   1.000  N
  C36      1.0000 0.45327  0.21320  0.53343  Biso   1.000  C
  Zn2      1.0000 0.62718  0.60060  0.55617  Biso   1.000  Zn
  N12      1.0000 0.48094  0.27080  0.52677  Biso   1.000  N
  Zn3      1.0000 0.82640  0.86350  0.73010  Biso   1.000  Zn
  I3       1.0000 0.60689  0.73858  0.59365  Biso   1.000  I
  I4       1.0000 0.65064  0.58931  0.48145  Biso   1.000  I
  I5       1.0000 0.76497  0.77170  0.70192  Biso   1.000  I
  I6       1.0000 0.86745  0.84268  0.80924  Biso   1.000  I
  Zn4      1.0000 0.63010  0.59610  0.55090  Biso   1.000  Zn
  I7       1.0000 0.61610  0.74240  0.58380  Biso   1.000  I
  I8       1.0000 0.65270  0.57320  0.47440  Biso   1.000  I
  Zn5      1.0000 0.82020  0.86100  0.72440  Biso   1.000  Zn
  I9       1.0000 0.75690  0.78690  0.69090  Biso   1.000  I
  I10      1.0000 0.86390  0.83210  0.79840  Biso   1.000  I
  Zn6      1.0000 0.42093  0.13095  0.90887  Biso   1.000  Zn
  I11      1.0000 0.38566  0.24368  0.94919  Biso   1.000  I
  I12      1.0000 0.47514  0.15440  0.86524  Biso   1.000  I
  N13      1.0000 0.38023  0.05950  0.86222  Biso   1.000  N
  C37      1.0000 0.35079  0.09800  0.83500  Biso   1.000  C
  H25      1.0000 0.34530  0.15910  0.84030  Biso   1.000  H
  C38      1.0000 0.32747  0.05430  0.79930  Biso   1.000  C
  H26      1.0000 0.30680  0.08510  0.78000  Biso   1.000  H
  C39      1.0000 0.33439  0.96510  0.79160  Biso   1.000  C
  C40      1.0000 0.36400  0.92350  0.82190  Biso   1.000  C
  H27      1.0000 0.36880  0.86130  0.81930  Biso   1.000  H
  C41      1.0000 0.38620  0.97290  0.85550  Biso   1.000  C
  H28      1.0000 0.40710  0.94400  0.87540  Biso   1.000  H
  N14      1.0000 0.16997  0.03590  0.60208  Biso   1.000  N
  C42      1.0000 0.19018  0.07800  0.63850  Biso   1.000  C
  H29      1.0000 0.18370  0.13820  0.64410  Biso   1.000  H
  C43      1.0000 0.21998  0.03780  0.66830  Biso   1.000  C
  H30      1.0000 0.23430  0.07030  0.69350  Biso   1.000  H
  C44      1.0000 0.22910  0.94850  0.66140  Biso   1.000  C
  C45      1.0000 0.20817  0.90440  0.62370  Biso   1.000  C
  H31      1.0000 0.21370  0.84370  0.61780  Biso   1.000  H
  C46      1.0000 0.17893  0.95060  0.59460  Biso   1.000  C
  H32      1.0000 0.16470  0.92060  0.56850  Biso   1.000  H
  N15      1.0000 0.31447  0.49930  0.72257  Biso   1.000  N
  C47      1.0000 0.34050  0.55490  0.74740  Biso   1.000  C
  H33      1.0000 0.36260  0.53030  0.76730  Biso   1.000  H
  C48      1.0000 0.33610  0.64750  0.74490  Biso   1.000  C
  H34      1.0000 0.35530  0.68570  0.76200  Biso   1.000  H
  C49      1.0000 0.30346  0.68290  0.71710  Biso   1.000  C
  C50      1.0000 0.27735  0.62550  0.69120  Biso   1.000  C
  H35      1.0000 0.25510  0.64820  0.67080  Biso   1.000  H
  C51      1.0000 0.28378  0.53390  0.69530  Biso   1.000  C
  H36      1.0000 0.26530  0.49460  0.67770  Biso   1.000  H
  C52      1.0000 0.31071  0.91330  0.75385  Biso   1.000  C
  N16      1.0000 0.28123  0.95450  0.72688  Biso   1.000  N
  C53      1.0000 0.26141  0.90360  0.69362  Biso   1.000  C
  N17      1.0000 0.26738  0.81660  0.68708  Biso   1.000  N
  C54      1.0000 0.29682  0.78160  0.71770  Biso   1.000  C
  N18      1.0000 0.32037  0.82680  0.75010  Biso   1.000  N
  N19      1.0000 0.08103  0.01350  0.55293  Biso   1.000  N
  C55      1.0000 0.06740  0.00140  0.59110  Biso   1.000  C
  H37      1.0000 0.07990  0.03140  0.61820  Biso   1.000  H
  C56      1.0000 0.03580  0.94670  0.59310  Biso   1.000  C
  H38      1.0000 0.02610  0.94040  0.62070  Biso   1.000  H
  C57      1.0000 0.01859  0.90130  0.55360  Biso   1.000  C
  C58      1.0000 0.03331  0.91180  0.51480  Biso   1.000  C
  H39      1.0000 0.02190  0.88060  0.48760  Biso   1.000  H
  C59      1.0000 0.06502  0.96820  0.51490  Biso   1.000  C
  H40      1.0000 0.07540  0.97470  0.48790  Biso   1.000  H
  N20      1.0000 0.85999  0.84390  0.68139  Biso   1.000  N
  C60      1.0000 0.89290  0.89020  0.68460  Biso   1.000  C
  H41      1.0000 0.89900  0.93410  0.70810  Biso   1.000  H
  C61      1.0000 0.91860  0.87730  0.65540  Biso   1.000  C
  H42      1.0000 0.94200  0.91130  0.65880  Biso   1.000  H
  C62      1.0000 0.90981  0.81420  0.62120  Biso   1.000  C
  C63      1.0000 0.87500  0.76660  0.61720  Biso   1.000  C
  H43      1.0000 0.86780  0.72280  0.59390  Biso   1.000  H
  C64      1.0000 0.85110  0.78480  0.64800  Biso   1.000  C
  H44      1.0000 0.82720  0.75320  0.64510  Biso   1.000  H
  N21      1.0000 0.93837  0.47290  0.45486  Biso   1.000  N
  C65      1.0000 0.96636  0.53140  0.45064  Biso   1.000  C
  H45      1.0000 0.98280  0.51840  0.42950  Biso   1.000  H
  C66      1.0000 0.97257  0.60940  0.47538  Biso   1.000  C
  H46      1.0000 0.99270  0.64960  0.47120  Biso   1.000  H
  C67      1.0000 0.94901  0.62830  0.50644  Biso   1.000  C
  C68      1.0000 0.92110  0.56670  0.51280  Biso   1.000  C
  H47      1.0000 0.90520  0.57750  0.53470  Biso   1.000  H
  C69      1.0000 0.91650  0.48960  0.48720  Biso   1.000  C
  H48      1.0000 0.89770  0.44680  0.49210  Biso   1.000  H
  C70      1.0000 0.98563  0.83980  0.55579  Biso   1.000  C
  N22      1.0000 0.96410  0.85660  0.58718  Biso   1.000  N
  C71      1.0000 0.93576  0.79820  0.58850  Biso   1.000  C
  N23      1.0000 0.92955  0.72340  0.56277  Biso   1.000  N
  C72      1.0000 0.95327  0.71320  0.53343  Biso   1.000  C
  Zn7      1.0000 0.12718  0.10060  0.55617  Biso   1.000  Zn
  N24      1.0000 0.98094  0.77080  0.52677  Biso   1.000  N
  Zn8      1.0000 0.32640  0.36350  0.73010  Biso   1.000  Zn
  I13      1.0000 0.10689  0.23858  0.59365  Biso   1.000  I
  I14      1.0000 0.15064  0.08931  0.48145  Biso   1.000  I
  I15      1.0000 0.26497  0.27170  0.70192  Biso   1.000  I
  I16      1.0000 0.36745  0.34268  0.80924  Biso   1.000  I
  Zn9      1.0000 0.13010  0.09610  0.55090  Biso   1.000  Zn
  I17      1.0000 0.11610  0.24240  0.58380  Biso   1.000  I
  I18      1.0000 0.15270  0.07320  0.47440  Biso   1.000  I
  Zn10     1.0000 0.32020  0.36100  0.72440  Biso   1.000  Zn
  I19      1.0000 0.25690  0.28690  0.69090  Biso   1.000  I
  I20      1.0000 0.36390  0.33210  0.79840  Biso   1.000  I
  Zn11     1.0000 0.92093  0.36905  0.40887  Biso   1.000  Zn
  I21      1.0000 0.88566  0.25632  0.44919  Biso   1.000  I
  I22      1.0000 0.97514  0.34560  0.36524  Biso   1.000  I
  N25      1.0000 0.88023  0.44050  0.36222  Biso   1.000  N
  C73      1.0000 0.85079  0.40200  0.33500  Biso   1.000  C
  H49      1.0000 0.84530  0.34090  0.34030  Biso   1.000  H
  C74      1.0000 0.82747  0.44570  0.29930  Biso   1.000  C
  H50      1.0000 0.80680  0.41490  0.28000  Biso   1.000  H
  C75      1.0000 0.83439  0.53490  0.29160  Biso   1.000  C
  C76      1.0000 0.86400  0.57650  0.32190  Biso   1.000  C
  H51      1.0000 0.86880  0.63870  0.31930  Biso   1.000  H
  C77      1.0000 0.88620  0.52710  0.35550  Biso   1.000  C
  H52      1.0000 0.90710  0.55600  0.37540  Biso   1.000  H
  N26      1.0000 0.66997  0.46410  0.10208  Biso   1.000  N
  C78      1.0000 0.69018  0.42200  0.13850  Biso   1.000  C
  H53      1.0000 0.68370  0.36180  0.14410  Biso   1.000  H
  C79      1.0000 0.71998  0.46220  0.16830  Biso   1.000  C
  H54      1.0000 0.73430  0.42970  0.19350  Biso   1.000  H
  C80      1.0000 0.72910  0.55150  0.16140  Biso   1.000  C
  C81      1.0000 0.70817  0.59560  0.12370  Biso   1.000  C
  H55      1.0000 0.71370  0.65630  0.11780  Biso   1.000  H
  C82      1.0000 0.67893  0.54940  0.09460  Biso   1.000  C
  H56      1.0000 0.66470  0.57940  0.06850  Biso   1.000  H
  N27      1.0000 0.81447  0.00070  0.22257  Biso   1.000  N
  C83      1.0000 0.84050  0.94510  0.24740  Biso   1.000  C
  H57      1.0000 0.86260  0.96970  0.26730  Biso   1.000  H
  C84      1.0000 0.83610  0.85250  0.24490  Biso   1.000  C
  H58      1.0000 0.85530  0.81430  0.26200  Biso   1.000  H
  C85      1.0000 0.80346  0.81710  0.21710  Biso   1.000  C
  C86      1.0000 0.77735  0.87450  0.19120  Biso   1.000  C
  H59      1.0000 0.75510  0.85180  0.17080  Biso   1.000  H
  C87      1.0000 0.78378  0.96610  0.19530  Biso   1.000  C
  H60      1.0000 0.76530  0.00540  0.17770  Biso   1.000  H
  C88      1.0000 0.81071  0.58670  0.25385  Biso   1.000  C
  N28      1.0000 0.78123  0.54550  0.22688  Biso   1.000  N
  C89      1.0000 0.76141  0.59640  0.19362  Biso   1.000  C
  N29      1.0000 0.76738  0.68340  0.18708  Biso   1.000  N
  C90      1.0000 0.79682  0.71840  0.21770  Biso   1.000  C
  N30      1.0000 0.82037  0.67320  0.25010  Biso   1.000  N
  N31      1.0000 0.58103  0.48650  0.05293  Biso   1.000  N
  C91      1.0000 0.56740  0.49860  0.09110  Biso   1.000  C
  H61      1.0000 0.57990  0.46860  0.11820  Biso   1.000  H
  C92      1.0000 0.53580  0.55330  0.09310  Biso   1.000  C
  H62      1.0000 0.52610  0.55960  0.12070  Biso   1.000  H
  C93      1.0000 0.51859  0.59870  0.05360  Biso   1.000  C
  C94      1.0000 0.53331  0.58820  0.01480  Biso   1.000  C
  H63      1.0000 0.52190  0.61940  0.98760  Biso   1.000  H
  C95      1.0000 0.56502  0.53180  0.01490  Biso   1.000  C
  H64      1.0000 0.57540  0.52530  0.98790  Biso   1.000  H
  N32      1.0000 0.35999  0.65610  0.18139  Biso   1.000  N
  C96      1.0000 0.39290  0.60980  0.18460  Biso   1.000  C
  H65      1.0000 0.39900  0.56590  0.20810  Biso   1.000  H
  C97      1.0000 0.41860  0.62270  0.15540  Biso   1.000  C
  H66      1.0000 0.44200  0.58870  0.15880  Biso   1.000  H
  C98      1.0000 0.40981  0.68580  0.12120  Biso   1.000  C
  C99      1.0000 0.37500  0.73340  0.11720  Biso   1.000  C
  H67      1.0000 0.36780  0.77720  0.09390  Biso   1.000  H
  C100     1.0000 0.35110  0.71520  0.14800  Biso   1.000  C
  H68      1.0000 0.32720  0.74680  0.14510  Biso   1.000  H
  N33      1.0000 0.43837  0.02710  0.95486  Biso   1.000  N
  C101     1.0000 0.46636  0.96860  0.95064  Biso   1.000  C
  H69      1.0000 0.48280  0.98160  0.92950  Biso   1.000  H
  C102     1.0000 0.47257  0.89060  0.97538  Biso   1.000  C
  H70      1.0000 0.49270  0.85040  0.97120  Biso   1.000  H
  C103     1.0000 0.44901  0.87170  0.00644  Biso   1.000  C
  C104     1.0000 0.42110  0.93330  0.01280  Biso   1.000  C
  H71      1.0000 0.40520  0.92250  0.03470  Biso   1.000  H
  C105     1.0000 0.41650  0.01040  0.98720  Biso   1.000  C
  H72      1.0000 0.39770  0.05320  0.99210  Biso   1.000  H
  C106     1.0000 0.48563  0.66020  0.05579  Biso   1.000  C
  N34      1.0000 0.46410  0.64340  0.08718  Biso   1.000  N
  C107     1.0000 0.43576  0.70180  0.08850  Biso   1.000  C
  N35      1.0000 0.42955  0.77660  0.06277  Biso   1.000  N
  C108     1.0000 0.45327  0.78680  0.03343  Biso   1.000  C
  Zn12     1.0000 0.62718  0.39940  0.05617  Biso   1.000  Zn
  N36      1.0000 0.48094  0.72920  0.02677  Biso   1.000  N
  Zn13     1.0000 0.82640  0.13650  0.23010  Biso   1.000  Zn
  I23      1.0000 0.60689  0.26142  0.09365  Biso   1.000  I
  I24      1.0000 0.65064  0.41069  0.98145  Biso   1.000  I
  I25      1.0000 0.76497  0.22830  0.20192  Biso   1.000  I
  I26      1.0000 0.86745  0.15732  0.30924  Biso   1.000  I
  Zn14     1.0000 0.63010  0.40390  0.05090  Biso   1.000  Zn
  I27      1.0000 0.61610  0.25760  0.08380  Biso   1.000  I
  I28      1.0000 0.65270  0.42680  0.97440  Biso   1.000  I
  Zn15     1.0000 0.82020  0.13900  0.22440  Biso   1.000  Zn
  I29      1.0000 0.75690  0.21310  0.19090  Biso   1.000  I
  I30      1.0000 0.86390  0.16790  0.29840  Biso   1.000  I
  Zn16     1.0000 0.42093  0.86905  0.40887  Biso   1.000  Zn
  I31      1.0000 0.38566  0.75632  0.44919  Biso   1.000  I
  I32      1.0000 0.47514  0.84560  0.36524  Biso   1.000  I
  N37      1.0000 0.38023  0.94050  0.36222  Biso   1.000  N
  C109     1.0000 0.35079  0.90200  0.33500  Biso   1.000  C
  H73      1.0000 0.34530  0.84090  0.34030  Biso   1.000  H
  C110     1.0000 0.32747  0.94570  0.29930  Biso   1.000  C
  H74      1.0000 0.30680  0.91490  0.28000  Biso   1.000  H
  C111     1.0000 0.33439  0.03490  0.29160  Biso   1.000  C
  C112     1.0000 0.36400  0.07650  0.32190  Biso   1.000  C
  H75      1.0000 0.36880  0.13870  0.31930  Biso   1.000  H
  C113     1.0000 0.38620  0.02710  0.35550  Biso   1.000  C
  H76      1.0000 0.40710  0.05600  0.37540  Biso   1.000  H
  N38      1.0000 0.16997  0.96410  0.10208  Biso   1.000  N
  C114     1.0000 0.19018  0.92200  0.13850  Biso   1.000  C
  H77      1.0000 0.18370  0.86180  0.14410  Biso   1.000  H
  C115     1.0000 0.21998  0.96220  0.16830  Biso   1.000  C
  H78      1.0000 0.23430  0.92970  0.19350  Biso   1.000  H
  C116     1.0000 0.22910  0.05150  0.16140  Biso   1.000  C
  C117     1.0000 0.20817  0.09560  0.12370  Biso   1.000  C
  H79      1.0000 0.21370  0.15630  0.11780  Biso   1.000  H
  C118     1.0000 0.17893  0.04940  0.09460  Biso   1.000  C
  H80      1.0000 0.16470  0.07940  0.06850  Biso   1.000  H
  N39      1.0000 0.31447  0.50070  0.22257  Biso   1.000  N
  C119     1.0000 0.34050  0.44510  0.24740  Biso   1.000  C
  H81      1.0000 0.36260  0.46970  0.26730  Biso   1.000  H
  C120     1.0000 0.33610  0.35250  0.24490  Biso   1.000  C
  H82      1.0000 0.35530  0.31430  0.26200  Biso   1.000  H
  C121     1.0000 0.30346  0.31710  0.21710  Biso   1.000  C
  C122     1.0000 0.27735  0.37450  0.19120  Biso   1.000  C
  H83      1.0000 0.25510  0.35180  0.17080  Biso   1.000  H
  C123     1.0000 0.28378  0.46610  0.19530  Biso   1.000  C
  H84      1.0000 0.26530  0.50540  0.17770  Biso   1.000  H
  C124     1.0000 0.31071  0.08670  0.25385  Biso   1.000  C
  N40      1.0000 0.28123  0.04550  0.22688  Biso   1.000  N
  C125     1.0000 0.26141  0.09640  0.19362  Biso   1.000  C
  N41      1.0000 0.26738  0.18340  0.18708  Biso   1.000  N
  C126     1.0000 0.29682  0.21840  0.21770  Biso   1.000  C
  N42      1.0000 0.32037  0.17320  0.25010  Biso   1.000  N
  N43      1.0000 0.08103  0.98650  0.05293  Biso   1.000  N
  C127     1.0000 0.06740  0.99860  0.09110  Biso   1.000  C
  H85      1.0000 0.07990  0.96860  0.11820  Biso   1.000  H
  C128     1.0000 0.03580  0.05330  0.09310  Biso   1.000  C
  H86      1.0000 0.02610  0.05960  0.12070  Biso   1.000  H
  C129     1.0000 0.01859  0.09870  0.05360  Biso   1.000  C
  C130     1.0000 0.03331  0.08820  0.01480  Biso   1.000  C
  H87      1.0000 0.02190  0.11940  0.98760  Biso   1.000  H
  C131     1.0000 0.06502  0.03180  0.01490  Biso   1.000  C
  H88      1.0000 0.07540  0.02530  0.98790  Biso   1.000  H
  N44      1.0000 0.85999  0.15610  0.18139  Biso   1.000  N
  C132     1.0000 0.89290  0.10980  0.18460  Biso   1.000  C
  H89      1.0000 0.89900  0.06590  0.20810  Biso   1.000  H
  C133     1.0000 0.91860  0.12270  0.15540  Biso   1.000  C
  H90      1.0000 0.94200  0.08870  0.15880  Biso   1.000  H
  C134     1.0000 0.90981  0.18580  0.12120  Biso   1.000  C
  C135     1.0000 0.87500  0.23340  0.11720  Biso   1.000  C
  H91      1.0000 0.86780  0.27720  0.09390  Biso   1.000  H
  C136     1.0000 0.85110  0.21520  0.14800  Biso   1.000  C
  H92      1.0000 0.82720  0.24680  0.14510  Biso   1.000  H
  N45      1.0000 0.93837  0.52710  0.95486  Biso   1.000  N
  C137     1.0000 0.96636  0.46860  0.95064  Biso   1.000  C
  H93      1.0000 0.98280  0.48160  0.92950  Biso   1.000  H
  C138     1.0000 0.97257  0.39060  0.97538  Biso   1.000  C
  H94      1.0000 0.99270  0.35040  0.97120  Biso   1.000  H
  C139     1.0000 0.94901  0.37170  0.00644  Biso   1.000  C
  C140     1.0000 0.92110  0.43330  0.01280  Biso   1.000  C
  H95      1.0000 0.90520  0.42250  0.03470  Biso   1.000  H
  C141     1.0000 0.91650  0.51040  0.98720  Biso   1.000  C
  H96      1.0000 0.89770  0.55320  0.99210  Biso   1.000  H
  C142     1.0000 0.98563  0.16020  0.05579  Biso   1.000  C
  N46      1.0000 0.96410  0.14340  0.08718  Biso   1.000  N
  C143     1.0000 0.93576  0.20180  0.08850  Biso   1.000  C
  N47      1.0000 0.92955  0.27660  0.06277  Biso   1.000  N
  C144     1.0000 0.95327  0.28680  0.03343  Biso   1.000  C
  Zn17     1.0000 0.12718  0.89940  0.05617  Biso   1.000  Zn
  N48      1.0000 0.98094  0.22920  0.02677  Biso   1.000  N
  Zn18     1.0000 0.32640  0.63650  0.23010  Biso   1.000  Zn
  I33      1.0000 0.10689  0.76142  0.09365  Biso   1.000  I
  I34      1.0000 0.15064  0.91069  0.98145  Biso   1.000  I
  I35      1.0000 0.26497  0.72830  0.20192  Biso   1.000  I
  I36      1.0000 0.36745  0.65732  0.30924  Biso   1.000  I
  Zn19     1.0000 0.13010  0.90390  0.05090  Biso   1.000  Zn
  I37      1.0000 0.11610  0.75760  0.08380  Biso   1.000  I
  I38      1.0000 0.15270  0.92680  0.97440  Biso   1.000  I
  Zn20     1.0000 0.32020  0.63900  0.22440  Biso   1.000  Zn
  I39      1.0000 0.25690  0.71310  0.19090  Biso   1.000  I
  I40      1.0000 0.36390  0.66790  0.29840  Biso   1.000  I
  Zn21     1.0000 0.07907  0.63095  0.59113  Biso   1.000  Zn
  I41      1.0000 0.11434  0.74368  0.55081  Biso   1.000  I
  I42      1.0000 0.02486  0.65440  0.63476  Biso   1.000  I
  N49      1.0000 0.11977  0.55950  0.63778  Biso   1.000  N
  C145     1.0000 0.14921  0.59800  0.66500  Biso   1.000  C
  H97      1.0000 0.15470  0.65910  0.65970  Biso   1.000  H
  C146     1.0000 0.17253  0.55430  0.70070  Biso   1.000  C
  H98      1.0000 0.19320  0.58510  0.72000  Biso   1.000  H
  C147     1.0000 0.16561  0.46510  0.70840  Biso   1.000  C
  C148     1.0000 0.13600  0.42350  0.67810  Biso   1.000  C
  H99      1.0000 0.13120  0.36130  0.68070  Biso   1.000  H
  C149     1.0000 0.11380  0.47290  0.64450  Biso   1.000  C
  H100     1.0000 0.09290  0.44400  0.62460  Biso   1.000  H
  N50      1.0000 0.33003  0.53590  0.89792  Biso   1.000  N
  C150     1.0000 0.30982  0.57800  0.86150  Biso   1.000  C
  H101     1.0000 0.31630  0.63820  0.85590  Biso   1.000  H
  C151     1.0000 0.28002  0.53780  0.83170  Biso   1.000  C
  H102     1.0000 0.26570  0.57030  0.80650  Biso   1.000  H
  C152     1.0000 0.27090  0.44850  0.83860  Biso   1.000  C
  C153     1.0000 0.29183  0.40440  0.87630  Biso   1.000  C
  H103     1.0000 0.28630  0.34370  0.88220  Biso   1.000  H
  C154     1.0000 0.32107  0.45060  0.90540  Biso   1.000  C
  H104     1.0000 0.33530  0.42060  0.93150  Biso   1.000  H
  N51      1.0000 0.18553  0.99930  0.77743  Biso   1.000  N
  C155     1.0000 0.15950  0.05490  0.75260  Biso   1.000  C
  H105     1.0000 0.13740  0.03030  0.73270  Biso   1.000  H
  C156     1.0000 0.16390  0.14750  0.75510  Biso   1.000  C
  H106     1.0000 0.14470  0.18570  0.73800  Biso   1.000  H
  C157     1.0000 0.19654  0.18290  0.78290  Biso   1.000  C
  C158     1.0000 0.22265  0.12550  0.80880  Biso   1.000  C
  H107     1.0000 0.24490  0.14820  0.82920  Biso   1.000  H
  C159     1.0000 0.21622  0.03390  0.80470  Biso   1.000  C
  H108     1.0000 0.23470  0.99460  0.82230  Biso   1.000  H
  C160     1.0000 0.18929  0.41330  0.74615  Biso   1.000  C
  N52      1.0000 0.21877  0.45450  0.77312  Biso   1.000  N
  C161     1.0000 0.23859  0.40360  0.80638  Biso   1.000  C
  N53      1.0000 0.23262  0.31660  0.81292  Biso   1.000  N
  C162     1.0000 0.20318  0.28160  0.78230  Biso   1.000  C
  N54      1.0000 0.17963  0.32680  0.74990  Biso   1.000  N
  N55      1.0000 0.41897  0.51350  0.94707  Biso   1.000  N
  C163     1.0000 0.43260  0.50140  0.90890  Biso   1.000  C
  H109     1.0000 0.42010  0.53140  0.88180  Biso   1.000  H
  C164     1.0000 0.46420  0.44670  0.90690  Biso   1.000  C
  H110     1.0000 0.47390  0.44040  0.87930  Biso   1.000  H
  C165     1.0000 0.48141  0.40130  0.94640  Biso   1.000  C
  C166     1.0000 0.46669  0.41180  0.98520  Biso   1.000  C
  H111     1.0000 0.47810  0.38060  0.01240  Biso   1.000  H
  C167     1.0000 0.43498  0.46820  0.98510  Biso   1.000  C
  H112     1.0000 0.42460  0.47470  0.01210  Biso   1.000  H
  N56      1.0000 0.64001  0.34390  0.81861  Biso   1.000  N
  C168     1.0000 0.60710  0.39020  0.81540  Biso   1.000  C
  H113     1.0000 0.60100  0.43410  0.79190  Biso   1.000  H
  C169     1.0000 0.58140  0.37730  0.84460  Biso   1.000  C
  H114     1.0000 0.55800  0.41130  0.84120  Biso   1.000  H
  C170     1.0000 0.59019  0.31420  0.87880  Biso   1.000  C
  C171     1.0000 0.62500  0.26660  0.88280  Biso   1.000  C
  H115     1.0000 0.63220  0.22280  0.90610  Biso   1.000  H
  C172     1.0000 0.64890  0.28480  0.85200  Biso   1.000  C
  H116     1.0000 0.67280  0.25320  0.85490  Biso   1.000  H
  N57      1.0000 0.56163  0.97290  0.04514  Biso   1.000  N
  C173     1.0000 0.53364  0.03140  0.04936  Biso   1.000  C
  H117     1.0000 0.51720  0.01840  0.07050  Biso   1.000  H
  C174     1.0000 0.52743  0.10940  0.02462  Biso   1.000  C
  H118     1.0000 0.50730  0.14960  0.02880  Biso   1.000  H
  C175     1.0000 0.55099  0.12830  0.99356  Biso   1.000  C
  C176     1.0000 0.57890  0.06670  0.98720  Biso   1.000  C
  H119     1.0000 0.59480  0.07750  0.96530  Biso   1.000  H
  C177     1.0000 0.58350  0.98960  0.01280  Biso   1.000  C
  H120     1.0000 0.60230  0.94680  0.00790  Biso   1.000  H
  C178     1.0000 0.51437  0.33980  0.94421  Biso   1.000  C
  N58      1.0000 0.53590  0.35660  0.91282  Biso   1.000  N
  C179     1.0000 0.56424  0.29820  0.91150  Biso   1.000  C
  N59      1.0000 0.57045  0.22340  0.93723  Biso   1.000  N
  C180     1.0000 0.54673  0.21320  0.96657  Biso   1.000  C
  Zn22     1.0000 0.37282  0.60060  0.94383  Biso   1.000  Zn
  N60      1.0000 0.51906  0.27080  0.97323  Biso   1.000  N
  Zn23     1.0000 0.17360  0.86350  0.76990  Biso   1.000  Zn
  I43      1.0000 0.39311  0.73858  0.90635  Biso   1.000  I
  I44      1.0000 0.34936  0.58931  0.01855  Biso   1.000  I
  I45      1.0000 0.23503  0.77170  0.79808  Biso   1.000  I
  I46      1.0000 0.13255  0.84268  0.69076  Biso   1.000  I
  Zn24     1.0000 0.36990  0.59610  0.94910  Biso   1.000  Zn
  I47      1.0000 0.38390  0.74240  0.91620  Biso   1.000  I
  I48      1.0000 0.34730  0.57320  0.02560  Biso   1.000  I
  Zn25     1.0000 0.17980  0.86100  0.77560  Biso   1.000  Zn
  I49      1.0000 0.24310  0.78690  0.80910  Biso   1.000  I
  I50      1.0000 0.13610  0.83210  0.70160  Biso   1.000  I
  Zn26     1.0000 0.57907  0.13095  0.59113  Biso   1.000  Zn
  I51      1.0000 0.61434  0.24368  0.55081  Biso   1.000  I
  I52      1.0000 0.52486  0.15440  0.63476  Biso   1.000  I
  N61      1.0000 0.61977  0.05950  0.63778  Biso   1.000  N
  C181     1.0000 0.64921  0.09800  0.66500  Biso   1.000  C
  H121     1.0000 0.65470  0.15910  0.65970  Biso   1.000  H
  C182     1.0000 0.67253  0.05430  0.70070  Biso   1.000  C
  H122     1.0000 0.69320  0.08510  0.72000  Biso   1.000  H
  C183     1.0000 0.66561  0.96510  0.70840  Biso   1.000  C
  C184     1.0000 0.63600  0.92350  0.67810  Biso   1.000  C
  H123     1.0000 0.63120  0.86130  0.68070  Biso   1.000  H
  C185     1.0000 0.61380  0.97290  0.64450  Biso   1.000  C
  H124     1.0000 0.59290  0.94400  0.62460  Biso   1.000  H
  N62      1.0000 0.83003  0.03590  0.89792  Biso   1.000  N
  C186     1.0000 0.80982  0.07800  0.86150  Biso   1.000  C
  H125     1.0000 0.81630  0.13820  0.85590  Biso   1.000  H
  C187     1.0000 0.78002  0.03780  0.83170  Biso   1.000  C
  H126     1.0000 0.76570  0.07030  0.80650  Biso   1.000  H
  C188     1.0000 0.77090  0.94850  0.83860  Biso   1.000  C
  C189     1.0000 0.79183  0.90440  0.87630  Biso   1.000  C
  H127     1.0000 0.78630  0.84370  0.88220  Biso   1.000  H
  C190     1.0000 0.82107  0.95060  0.90540  Biso   1.000  C
  H128     1.0000 0.83530  0.92060  0.93150  Biso   1.000  H
  N63      1.0000 0.68553  0.49930  0.77743  Biso   1.000  N
  C191     1.0000 0.65950  0.55490  0.75260  Biso   1.000  C
  H129     1.0000 0.63740  0.53030  0.73270  Biso   1.000  H
  C192     1.0000 0.66390  0.64750  0.75510  Biso   1.000  C
  H130     1.0000 0.64470  0.68570  0.73800  Biso   1.000  H
  C193     1.0000 0.69654  0.68290  0.78290  Biso   1.000  C
  C194     1.0000 0.72265  0.62550  0.80880  Biso   1.000  C
  H131     1.0000 0.74490  0.64820  0.82920  Biso   1.000  H
  C195     1.0000 0.71622  0.53390  0.80470  Biso   1.000  C
  H132     1.0000 0.73470  0.49460  0.82230  Biso   1.000  H
  C196     1.0000 0.68929  0.91330  0.74615  Biso   1.000  C
  N64      1.0000 0.71877  0.95450  0.77312  Biso   1.000  N
  C197     1.0000 0.73859  0.90360  0.80638  Biso   1.000  C
  N65      1.0000 0.73262  0.81660  0.81292  Biso   1.000  N
  C198     1.0000 0.70318  0.78160  0.78230  Biso   1.000  C
  N66      1.0000 0.67963  0.82680  0.74990  Biso   1.000  N
  N67      1.0000 0.91897  0.01350  0.94707  Biso   1.000  N
  C199     1.0000 0.93260  0.00140  0.90890  Biso   1.000  C
  H133     1.0000 0.92010  0.03140  0.88180  Biso   1.000  H
  C200     1.0000 0.96420  0.94670  0.90690  Biso   1.000  C
  H134     1.0000 0.97390  0.94040  0.87930  Biso   1.000  H
  C201     1.0000 0.98141  0.90130  0.94640  Biso   1.000  C
  C202     1.0000 0.96669  0.91180  0.98520  Biso   1.000  C
  H135     1.0000 0.97810  0.88060  0.01240  Biso   1.000  H
  C203     1.0000 0.93498  0.96820  0.98510  Biso   1.000  C
  H136     1.0000 0.92460  0.97470  0.01210  Biso   1.000  H
  N68      1.0000 0.14001  0.84390  0.81861  Biso   1.000  N
  C204     1.0000 0.10710  0.89020  0.81540  Biso   1.000  C
  H137     1.0000 0.10100  0.93410  0.79190  Biso   1.000  H
  C205     1.0000 0.08140  0.87730  0.84460  Biso   1.000  C
  H138     1.0000 0.05800  0.91130  0.84120  Biso   1.000  H
  C206     1.0000 0.09019  0.81420  0.87880  Biso   1.000  C
  C207     1.0000 0.12500  0.76660  0.88280  Biso   1.000  C
  H139     1.0000 0.13220  0.72280  0.90610  Biso   1.000  H
  C208     1.0000 0.14890  0.78480  0.85200  Biso   1.000  C
  H140     1.0000 0.17280  0.75320  0.85490  Biso   1.000  H
  N69      1.0000 0.06163  0.47290  0.04514  Biso   1.000  N
  C209     1.0000 0.03364  0.53140  0.04936  Biso   1.000  C
  H141     1.0000 0.01720  0.51840  0.07050  Biso   1.000  H
  C210     1.0000 0.02743  0.60940  0.02462  Biso   1.000  C
  H142     1.0000 0.00730  0.64960  0.02880  Biso   1.000  H
  C211     1.0000 0.05099  0.62830  0.99356  Biso   1.000  C
  C212     1.0000 0.07890  0.56670  0.98720  Biso   1.000  C
  H143     1.0000 0.09480  0.57750  0.96530  Biso   1.000  H
  C213     1.0000 0.08350  0.48960  0.01280  Biso   1.000  C
  H144     1.0000 0.10230  0.44680  0.00790  Biso   1.000  H
  C214     1.0000 0.01437  0.83980  0.94421  Biso   1.000  C
  N70      1.0000 0.03590  0.85660  0.91282  Biso   1.000  N
  C215     1.0000 0.06424  0.79820  0.91150  Biso   1.000  C
  N71      1.0000 0.07045  0.72340  0.93723  Biso   1.000  N
  C216     1.0000 0.04673  0.71320  0.96657  Biso   1.000  C
  Zn27     1.0000 0.87282  0.10060  0.94383  Biso   1.000  Zn
  N72      1.0000 0.01906  0.77080  0.97323  Biso   1.000  N
  Zn28     1.0000 0.67360  0.36350  0.76990  Biso   1.000  Zn
  I53      1.0000 0.89311  0.23858  0.90635  Biso   1.000  I
  I54      1.0000 0.84936  0.08931  0.01855  Biso   1.000  I
  I55      1.0000 0.73503  0.27170  0.79808  Biso   1.000  I
  I56      1.0000 0.63255  0.34268  0.69076  Biso   1.000  I
  Zn29     1.0000 0.86990  0.09610  0.94910  Biso   1.000  Zn
  I57      1.0000 0.88390  0.24240  0.91620  Biso   1.000  I
  I58      1.0000 0.84730  0.07320  0.02560  Biso   1.000  I
  Zn30     1.0000 0.67980  0.36100  0.77560  Biso   1.000  Zn
  I59      1.0000 0.74310  0.28690  0.80910  Biso   1.000  I
  I60      1.0000 0.63610  0.33210  0.70160  Biso   1.000  I
  Zn31     1.0000 0.07907  0.36905  0.09113  Biso   1.000  Zn
  I61      1.0000 0.11434  0.25632  0.05081  Biso   1.000  I
  I62      1.0000 0.02486  0.34560  0.13476  Biso   1.000  I
  N73      1.0000 0.11977  0.44050  0.13778  Biso   1.000  N
  C217     1.0000 0.14921  0.40200  0.16500  Biso   1.000  C
  H145     1.0000 0.15470  0.34090  0.15970  Biso   1.000  H
  C218     1.0000 0.17253  0.44570  0.20070  Biso   1.000  C
  H146     1.0000 0.19320  0.41490  0.22000  Biso   1.000  H
  C219     1.0000 0.16561  0.53490  0.20840  Biso   1.000  C
  C220     1.0000 0.13600  0.57650  0.17810  Biso   1.000  C
  H147     1.0000 0.13120  0.63870  0.18070  Biso   1.000  H
  C221     1.0000 0.11380  0.52710  0.14450  Biso   1.000  C
  H148     1.0000 0.09290  0.55600  0.12460  Biso   1.000  H
  N74      1.0000 0.33003  0.46410  0.39792  Biso   1.000  N
  C222     1.0000 0.30982  0.42200  0.36150  Biso   1.000  C
  H149     1.0000 0.31630  0.36180  0.35590  Biso   1.000  H
  C223     1.0000 0.28002  0.46220  0.33170  Biso   1.000  C
  H150     1.0000 0.26570  0.42970  0.30650  Biso   1.000  H
  C224     1.0000 0.27090  0.55150  0.33860  Biso   1.000  C
  C225     1.0000 0.29183  0.59560  0.37630  Biso   1.000  C
  H151     1.0000 0.28630  0.65630  0.38220  Biso   1.000  H
  C226     1.0000 0.32107  0.54940  0.40540  Biso   1.000  C
  H152     1.0000 0.33530  0.57940  0.43150  Biso   1.000  H
  N75      1.0000 0.18553  0.00070  0.27743  Biso   1.000  N
  C227     1.0000 0.15950  0.94510  0.25260  Biso   1.000  C
  H153     1.0000 0.13740  0.96970  0.23270  Biso   1.000  H
  C228     1.0000 0.16390  0.85250  0.25510  Biso   1.000  C
  H154     1.0000 0.14470  0.81430  0.23800  Biso   1.000  H
  C229     1.0000 0.19654  0.81710  0.28290  Biso   1.000  C
  C230     1.0000 0.22265  0.87450  0.30880  Biso   1.000  C
  H155     1.0000 0.24490  0.85180  0.32920  Biso   1.000  H
  C231     1.0000 0.21622  0.96610  0.30470  Biso   1.000  C
  H156     1.0000 0.23470  0.00540  0.32230  Biso   1.000  H
  C232     1.0000 0.18929  0.58670  0.24615  Biso   1.000  C
  N76      1.0000 0.21877  0.54550  0.27312  Biso   1.000  N
  C233     1.0000 0.23859  0.59640  0.30638  Biso   1.000  C
  N77      1.0000 0.23262  0.68340  0.31292  Biso   1.000  N
  C234     1.0000 0.20318  0.71840  0.28230  Biso   1.000  C
  N78      1.0000 0.17963  0.67320  0.24990  Biso   1.000  N
  N79      1.0000 0.41897  0.48650  0.44707  Biso   1.000  N
  C235     1.0000 0.43260  0.49860  0.40890  Biso   1.000  C
  H157     1.0000 0.42010  0.46860  0.38180  Biso   1.000  H
  C236     1.0000 0.46420  0.55330  0.40690  Biso   1.000  C
  H158     1.0000 0.47390  0.55960  0.37930  Biso   1.000  H
  C237     1.0000 0.48141  0.59870  0.44640  Biso   1.000  C
  C238     1.0000 0.46669  0.58820  0.48520  Biso   1.000  C
  H159     1.0000 0.47810  0.61940  0.51240  Biso   1.000  H
  C239     1.0000 0.43498  0.53180  0.48510  Biso   1.000  C
  H160     1.0000 0.42460  0.52530  0.51210  Biso   1.000  H
  N80      1.0000 0.64001  0.65610  0.31861  Biso   1.000  N
  C240     1.0000 0.60710  0.60980  0.31540  Biso   1.000  C
  H161     1.0000 0.60100  0.56590  0.29190  Biso   1.000  H
  C241     1.0000 0.58140  0.62270  0.34460  Biso   1.000  C
  H162     1.0000 0.55800  0.58870  0.34120  Biso   1.000  H
  C242     1.0000 0.59019  0.68580  0.37880  Biso   1.000  C
  C243     1.0000 0.62500  0.73340  0.38280  Biso   1.000  C
  H163     1.0000 0.63220  0.77720  0.40610  Biso   1.000  H
  C244     1.0000 0.64890  0.71520  0.35200  Biso   1.000  C
  H164     1.0000 0.67280  0.74680  0.35490  Biso   1.000  H
  N81      1.0000 0.56163  0.02710  0.54514  Biso   1.000  N
  C245     1.0000 0.53364  0.96860  0.54936  Biso   1.000  C
  H165     1.0000 0.51720  0.98160  0.57050  Biso   1.000  H
  C246     1.0000 0.52743  0.89060  0.52462  Biso   1.000  C
  H166     1.0000 0.50730  0.85040  0.52880  Biso   1.000  H
  C247     1.0000 0.55099  0.87170  0.49356  Biso   1.000  C
  C248     1.0000 0.57890  0.93330  0.48720  Biso   1.000  C
  H167     1.0000 0.59480  0.92250  0.46530  Biso   1.000  H
  C249     1.0000 0.58350  0.01040  0.51280  Biso   1.000  C
  H168     1.0000 0.60230  0.05320  0.50790  Biso   1.000  H
  C250     1.0000 0.51437  0.66020  0.44421  Biso   1.000  C
  N82      1.0000 0.53590  0.64340  0.41282  Biso   1.000  N
  C251     1.0000 0.56424  0.70180  0.41150  Biso   1.000  C
  N83      1.0000 0.57045  0.77660  0.43723  Biso   1.000  N
  C252     1.0000 0.54673  0.78680  0.46657  Biso   1.000  C
  Zn32     1.0000 0.37282  0.39940  0.44383  Biso   1.000  Zn
  N84      1.0000 0.51906  0.72920  0.47323  Biso   1.000  N
  Zn33     1.0000 0.17360  0.13650  0.26990  Biso   1.000  Zn
  I63      1.0000 0.39311  0.26142  0.40635  Biso   1.000  I
  I64      1.0000 0.34936  0.41069  0.51855  Biso   1.000  I
  I65      1.0000 0.23503  0.22830  0.29808  Biso   1.000  I
  I66      1.0000 0.13255  0.15732  0.19076  Biso   1.000  I
  Zn34     1.0000 0.36990  0.40390  0.44910  Biso   1.000  Zn
  I67      1.0000 0.38390  0.25760  0.41620  Biso   1.000  I
  I68      1.0000 0.34730  0.42680  0.52560  Biso   1.000  I
  Zn35     1.0000 0.17980  0.13900  0.27560  Biso   1.000  Zn
  I69      1.0000 0.24310  0.21310  0.30910  Biso   1.000  I
  I70      1.0000 0.13610  0.16790  0.20160  Biso   1.000  I
  Zn36     1.0000 0.57907  0.86905  0.09113  Biso   1.000  Zn
  I71      1.0000 0.61434  0.75632  0.05081  Biso   1.000  I
  I72      1.0000 0.52486  0.84560  0.13476  Biso   1.000  I
  N85      1.0000 0.61977  0.94050  0.13778  Biso   1.000  N
  C253     1.0000 0.64921  0.90200  0.16500  Biso   1.000  C
  H169     1.0000 0.65470  0.84090  0.15970  Biso   1.000  H
  C254     1.0000 0.67253  0.94570  0.20070  Biso   1.000  C
  H170     1.0000 0.69320  0.91490  0.22000  Biso   1.000  H
  C255     1.0000 0.66561  0.03490  0.20840  Biso   1.000  C
  C256     1.0000 0.63600  0.07650  0.17810  Biso   1.000  C
  H171     1.0000 0.63120  0.13870  0.18070  Biso   1.000  H
  C257     1.0000 0.61380  0.02710  0.14450  Biso   1.000  C
  H172     1.0000 0.59290  0.05600  0.12460  Biso   1.000  H
  N86      1.0000 0.83003  0.96410  0.39792  Biso   1.000  N
  C258     1.0000 0.80982  0.92200  0.36150  Biso   1.000  C
  H173     1.0000 0.81630  0.86180  0.35590  Biso   1.000  H
  C259     1.0000 0.78002  0.96220  0.33170  Biso   1.000  C
  H174     1.0000 0.76570  0.92970  0.30650  Biso   1.000  H
  C260     1.0000 0.77090  0.05150  0.33860  Biso   1.000  C
  C261     1.0000 0.79183  0.09560  0.37630  Biso   1.000  C
  H175     1.0000 0.78630  0.15630  0.38220  Biso   1.000  H
  C262     1.0000 0.82107  0.04940  0.40540  Biso   1.000  C
  H176     1.0000 0.83530  0.07940  0.43150  Biso   1.000  H
  N87      1.0000 0.68553  0.50070  0.27743  Biso   1.000  N
  C263     1.0000 0.65950  0.44510  0.25260  Biso   1.000  C
  H177     1.0000 0.63740  0.46970  0.23270  Biso   1.000  H
  C264     1.0000 0.66390  0.35250  0.25510  Biso   1.000  C
  H178     1.0000 0.64470  0.31430  0.23800  Biso   1.000  H
  C265     1.0000 0.69654  0.31710  0.28290  Biso   1.000  C
  C266     1.0000 0.72265  0.37450  0.30880  Biso   1.000  C
  H179     1.0000 0.74490  0.35180  0.32920  Biso   1.000  H
  C267     1.0000 0.71622  0.46610  0.30470  Biso   1.000  C
  H180     1.0000 0.73470  0.50540  0.32230  Biso   1.000  H
  C268     1.0000 0.68929  0.08670  0.24615  Biso   1.000  C
  N88      1.0000 0.71877  0.04550  0.27312  Biso   1.000  N
  C269     1.0000 0.73859  0.09640  0.30638  Biso   1.000  C
  N89      1.0000 0.73262  0.18340  0.31292  Biso   1.000  N
  C270     1.0000 0.70318  0.21840  0.28230  Biso   1.000  C
  N90      1.0000 0.67963  0.17320  0.24990  Biso   1.000  N
  N91      1.0000 0.91897  0.98650  0.44707  Biso   1.000  N
  C271     1.0000 0.93260  0.99860  0.40890  Biso   1.000  C
  H181     1.0000 0.92010  0.96860  0.38180  Biso   1.000  H
  C272     1.0000 0.96420  0.05330  0.40690  Biso   1.000  C
  H182     1.0000 0.97390  0.05960  0.37930  Biso   1.000  H
  C273     1.0000 0.98141  0.09870  0.44640  Biso   1.000  C
  C274     1.0000 0.96669  0.08820  0.48520  Biso   1.000  C
  H183     1.0000 0.97810  0.11940  0.51240  Biso   1.000  H
  C275     1.0000 0.93498  0.03180  0.48510  Biso   1.000  C
  H184     1.0000 0.92460  0.02530  0.51210  Biso   1.000  H
  N92      1.0000 0.14001  0.15610  0.31861  Biso   1.000  N
  C276     1.0000 0.10710  0.10980  0.31540  Biso   1.000  C
  H185     1.0000 0.10100  0.06590  0.29190  Biso   1.000  H
  C277     1.0000 0.08140  0.12270  0.34460  Biso   1.000  C
  H186     1.0000 0.05800  0.08870  0.34120  Biso   1.000  H
  C278     1.0000 0.09019  0.18580  0.37880  Biso   1.000  C
  C279     1.0000 0.12500  0.23340  0.38280  Biso   1.000  C
  H187     1.0000 0.13220  0.27720  0.40610  Biso   1.000  H
  C280     1.0000 0.14890  0.21520  0.35200  Biso   1.000  C
  H188     1.0000 0.17280  0.24680  0.35490  Biso   1.000  H
  N93      1.0000 0.06163  0.52710  0.54514  Biso   1.000  N
  C281     1.0000 0.03364  0.46860  0.54936  Biso   1.000  C
  H189     1.0000 0.01720  0.48160  0.57050  Biso   1.000  H
  C282     1.0000 0.02743  0.39060  0.52462  Biso   1.000  C
  H190     1.0000 0.00730  0.35040  0.52880  Biso   1.000  H
  C283     1.0000 0.05099  0.37170  0.49356  Biso   1.000  C
  C284     1.0000 0.07890  0.43330  0.48720  Biso   1.000  C
  H191     1.0000 0.09480  0.42250  0.46530  Biso   1.000  H
  C285     1.0000 0.08350  0.51040  0.51280  Biso   1.000  C
  H192     1.0000 0.10230  0.55320  0.50790  Biso   1.000  H
  C286     1.0000 0.01437  0.16020  0.44421  Biso   1.000  C
  N94      1.0000 0.03590  0.14340  0.41282  Biso   1.000  N
  C287     1.0000 0.06424  0.20180  0.41150  Biso   1.000  C
  N95      1.0000 0.07045  0.27660  0.43723  Biso   1.000  N
  C288     1.0000 0.04673  0.28680  0.46657  Biso   1.000  C
  Zn37     1.0000 0.87282  0.89940  0.44383  Biso   1.000  Zn
  N96      1.0000 0.01906  0.22920  0.47323  Biso   1.000  N
  Zn38     1.0000 0.67360  0.63650  0.26990  Biso   1.000  Zn
  I73      1.0000 0.89311  0.76142  0.40635  Biso   1.000  I
  I74      1.0000 0.84936  0.91069  0.51855  Biso   1.000  I
  I75      1.0000 0.73503  0.72830  0.29808  Biso   1.000  I
  I76      1.0000 0.63255  0.65732  0.19076  Biso   1.000  I
  Zn39     1.0000 0.86990  0.90390  0.44910  Biso   1.000  Zn
  I77      1.0000 0.88390  0.75760  0.41620  Biso   1.000  I
  I78      1.0000 0.84730  0.92680  0.52560  Biso   1.000  I
  Zn40     1.0000 0.67980  0.63900  0.27560  Biso   1.000  Zn
  I79      1.0000 0.74310  0.71310  0.30910  Biso   1.000  I
  I80      1.0000 0.63610  0.66790  0.20160  Biso   1.000  I
