data_image0
_cell_length_a       34.9032
_cell_length_b       14.8011
_cell_length_c       31.0811
_cell_angle_alpha    90
_cell_angle_beta     101.564
_cell_angle_gamma    90

_symmetry_space_group_name_H-M    "P 1"
_symmetry_int_tables_number       1

loop_
  _symmetry_equiv_pos_as_xyz
  'x, y, z'

loop_
  _atom_site_label
  _atom_site_occupancy
  _atom_site_fract_x
  _atom_site_fract_y
  _atom_site_fract_z
  _atom_site_thermal_displace_type
  _atom_site_B_iso_or_equiv
  _atom_site_type_symbol
  Zn1      1.0000 0.37390  0.90015  0.43819  Biso   1.000  Zn
  Zn2      1.0000 0.16900  0.35850  0.76610  Biso   1.000  Zn
  I1       1.0000 0.22939  0.26360  0.78940  Biso   1.000  I
  I2       1.0000 0.12268  0.34160  0.69375  Biso   1.000  I
  Zn3      1.0000 0.08014  0.86970  0.09210  Biso   1.000  Zn
  I3       1.0000 0.02446  0.84796  0.12888  Biso   1.000  I
  I4       1.0000 0.11672  0.75690  0.05498  Biso   1.000  I
  I5       1.0000 0.39537  0.76420  0.39886  Biso   1.000  I
  I6       1.0000 0.35571  0.91340  0.51258  Biso   1.000  I
  N1       1.0000 0.13898  0.34070  0.81800  Biso   1.000  N
  C1       1.0000 0.10680  0.38800  0.81670  Biso   1.000  C
  H1       1.0000 0.10000  0.43330  0.79480  Biso   1.000  H
  C2       1.0000 0.08240  0.37400  0.84630  Biso   1.000  C
  H2       1.0000 0.05860  0.40690  0.84340  Biso   1.000  H
  C3       1.0000 0.09236  0.31320  0.87940  Biso   1.000  C
  C4       1.0000 0.12710  0.26630  0.88120  Biso   1.000  C
  H3       1.0000 0.13530  0.22300  0.90370  Biso   1.000  H
  C5       1.0000 0.14930  0.28210  0.85080  Biso   1.000  C
  H4       1.0000 0.17330  0.25010  0.85300  Biso   1.000  H
  N2       1.0000 0.06851  0.98160  0.04747  Biso   1.000  N
  C6       1.0000 0.03721  0.03350  0.04607  Biso   1.000  C
  H5       1.0000 0.01860  0.01690  0.06310  Biso   1.000  H
  C7       1.0000 0.03083  0.11080  0.02070  Biso   1.000  C
  H6       1.0000 0.00850  0.14730  0.02090  Biso   1.000  H
  C8       1.0000 0.05727  0.13430  0.99497  Biso   1.000  C
  C9       1.0000 0.09010  0.07990  0.99570  Biso   1.000  C
  H7       1.0000 0.10910  0.09430  0.97890  Biso   1.000  H
  C10      1.0000 0.09360  0.00280  0.02260  Biso   1.000  C
  H8       1.0000 0.11520  0.96390  0.02290  Biso   1.000  H
  N3       1.0000 0.92049  0.51250  0.94153  Biso   1.000  N
  C11      1.0000 0.93390  0.49890  0.90610  Biso   1.000  C
  H9       1.0000 0.92130  0.52760  0.87970  Biso   1.000  H
  C12      1.0000 0.96610  0.44350  0.90530  Biso   1.000  C
  H10      1.0000 0.97550  0.43500  0.87890  Biso   1.000  H
  C13      1.0000 0.98378  0.40180  0.94311  Biso   1.000  C
  C14      1.0000 0.96748  0.41020  0.97940  Biso   1.000  C
  H11      1.0000 0.97780  0.37760  0.00550  Biso   1.000  H
  C15      1.0000 0.93561  0.46680  0.97750  Biso   1.000  C
  H12      1.0000 0.92430  0.47310  0.00270  Biso   1.000  H
  C16      1.0000 0.06766  0.29700  0.91174  Biso   1.000  C
  N4       1.0000 0.07468  0.22490  0.93756  Biso   1.000  N
  C17      1.0000 0.05198  0.21620  0.96687  Biso   1.000  C
  N5       1.0000 0.02340  0.27400  0.97197  Biso   1.000  N
  C18      1.0000 0.01773  0.34090  0.94272  Biso   1.000  C
  N6       1.0000 0.03828  0.35620  0.91212  Biso   1.000  N
  N7       1.0000 0.12194  0.94190  0.13974  Biso   1.000  N
  C19      1.0000 0.11590  0.02760  0.14650  Biso   1.000  C
  H13      1.0000 0.09510  0.05730  0.12720  Biso   1.000  H
  C20      1.0000 0.13810  0.07690  0.18030  Biso   1.000  C
  H14      1.0000 0.13330  0.13950  0.18340  Biso   1.000  H
  C21      1.0000 0.16705  0.03440  0.20886  Biso   1.000  C
  C22      1.0000 0.17317  0.94490  0.20230  Biso   1.000  C
  H15      1.0000 0.19290  0.91300  0.22190  Biso   1.000  H
  C23      1.0000 0.15060  0.90100  0.16710  Biso   1.000  C
  H16      1.0000 0.15580  0.83920  0.16230  Biso   1.000  H
  N8       1.0000 0.33098  0.96530  0.39343  Biso   1.000  N
  C24      1.0000 0.32340  0.05110  0.39870  Biso   1.000  C
  H17      1.0000 0.33870  0.08260  0.42280  Biso   1.000  H
  C25      1.0000 0.29409  0.09820  0.37050  Biso   1.000  C
  H18      1.0000 0.28960  0.16050  0.37500  Biso   1.000  H
  C26      1.0000 0.27174  0.05200  0.33584  Biso   1.000  C
  C27      1.0000 0.27980  0.96100  0.33020  Biso   1.000  C
  H19      1.0000 0.26520  0.92760  0.30640  Biso   1.000  H
  C28      1.0000 0.30920  0.92070  0.35970  Biso   1.000  C
  H20      1.0000 0.31430  0.85850  0.35610  Biso   1.000  H
  N9       1.0000 0.18378  0.50300  0.27560  Biso   1.000  N
  C29      1.0000 0.21350  0.46960  0.30310  Biso   1.000  C
  H21      1.0000 0.23060  0.51010  0.32140  Biso   1.000  H
  C30      1.0000 0.22140  0.37740  0.30710  Biso   1.000  C
  H22      1.0000 0.24320  0.35580  0.32810  Biso   1.000  H
  C31      1.0000 0.19749  0.31870  0.28040  Biso   1.000  C
  C32      1.0000 0.16540  0.35410  0.25170  Biso   1.000  C
  H23      1.0000 0.14760  0.31520  0.23330  Biso   1.000  H
  C33      1.0000 0.15950  0.44630  0.25030  Biso   1.000  C
  H24      1.0000 0.13750  0.47010  0.23070  Biso   1.000  H
  C34      1.0000 0.19064  0.08660  0.24567  Biso   1.000  C
  N10      1.0000 0.21967  0.04460  0.27261  Biso   1.000  N
  C35      1.0000 0.23968  0.09700  0.30461  Biso   1.000  C
  N11      1.0000 0.23353  0.18480  0.30981  Biso   1.000  N
  C36      1.0000 0.20463  0.21940  0.27990  Biso   1.000  C
  N12      1.0000 0.18138  0.17370  0.24832  Biso   1.000  N
  Zn4      1.0000 0.17620  0.36020  0.77620  Biso   1.000  Zn
  I7       1.0000 0.23950  0.27880  0.80430  Biso   1.000  I
  I8       1.0000 0.13220  0.33300  0.70030  Biso   1.000  I
  Zn5      1.0000 0.08740  0.88340  0.08950  Biso   1.000  Zn
  I9       1.0000 0.02640  0.84660  0.12120  Biso   1.000  I
  I10      1.0000 0.12450  0.77020  0.05240  Biso   1.000  I
  I11      1.0000 0.38580  0.75610  0.40650  Biso   1.000  I
  I12      1.0000 0.34952  0.89130  0.50789  Biso   1.000  I
  Zn6      1.0000 0.87390  0.40015  0.43819  Biso   1.000  Zn
  Zn7      1.0000 0.66900  0.85850  0.76610  Biso   1.000  Zn
  I13      1.0000 0.72939  0.76360  0.78940  Biso   1.000  I
  I14      1.0000 0.62268  0.84160  0.69375  Biso   1.000  I
  Zn8      1.0000 0.58014  0.36970  0.09210  Biso   1.000  Zn
  I15      1.0000 0.52446  0.34796  0.12888  Biso   1.000  I
  I16      1.0000 0.61672  0.25690  0.05498  Biso   1.000  I
  I17      1.0000 0.89537  0.26420  0.39886  Biso   1.000  I
  I18      1.0000 0.85571  0.41340  0.51258  Biso   1.000  I
  N13      1.0000 0.63898  0.84070  0.81800  Biso   1.000  N
  C37      1.0000 0.60680  0.88800  0.81670  Biso   1.000  C
  H25      1.0000 0.60000  0.93330  0.79480  Biso   1.000  H
  C38      1.0000 0.58240  0.87400  0.84630  Biso   1.000  C
  H26      1.0000 0.55860  0.90690  0.84340  Biso   1.000  H
  C39      1.0000 0.59236  0.81320  0.87940  Biso   1.000  C
  C40      1.0000 0.62710  0.76630  0.88120  Biso   1.000  C
  H27      1.0000 0.63530  0.72300  0.90370  Biso   1.000  H
  C41      1.0000 0.64930  0.78210  0.85080  Biso   1.000  C
  H28      1.0000 0.67330  0.75010  0.85300  Biso   1.000  H
  N14      1.0000 0.56851  0.48160  0.04747  Biso   1.000  N
  C42      1.0000 0.53721  0.53350  0.04607  Biso   1.000  C
  H29      1.0000 0.51860  0.51690  0.06310  Biso   1.000  H
  C43      1.0000 0.53083  0.61080  0.02070  Biso   1.000  C
  H30      1.0000 0.50850  0.64730  0.02090  Biso   1.000  H
  C44      1.0000 0.55727  0.63430  0.99497  Biso   1.000  C
  C45      1.0000 0.59010  0.57990  0.99570  Biso   1.000  C
  H31      1.0000 0.60910  0.59430  0.97890  Biso   1.000  H
  C46      1.0000 0.59360  0.50280  0.02260  Biso   1.000  C
  H32      1.0000 0.61520  0.46390  0.02290  Biso   1.000  H
  N15      1.0000 0.42049  0.01250  0.94153  Biso   1.000  N
  C47      1.0000 0.43390  0.99890  0.90610  Biso   1.000  C
  H33      1.0000 0.42130  0.02760  0.87970  Biso   1.000  H
  C48      1.0000 0.46610  0.94350  0.90530  Biso   1.000  C
  H34      1.0000 0.47550  0.93500  0.87890  Biso   1.000  H
  C49      1.0000 0.48378  0.90180  0.94311  Biso   1.000  C
  C50      1.0000 0.46748  0.91020  0.97940  Biso   1.000  C
  H35      1.0000 0.47780  0.87760  0.00550  Biso   1.000  H
  C51      1.0000 0.43561  0.96680  0.97750  Biso   1.000  C
  H36      1.0000 0.42430  0.97310  0.00270  Biso   1.000  H
  C52      1.0000 0.56766  0.79700  0.91174  Biso   1.000  C
  N16      1.0000 0.57468  0.72490  0.93756  Biso   1.000  N
  C53      1.0000 0.55198  0.71620  0.96687  Biso   1.000  C
  N17      1.0000 0.52340  0.77400  0.97197  Biso   1.000  N
  C54      1.0000 0.51773  0.84090  0.94272  Biso   1.000  C
  N18      1.0000 0.53828  0.85620  0.91212  Biso   1.000  N
  N19      1.0000 0.62194  0.44190  0.13974  Biso   1.000  N
  C55      1.0000 0.61590  0.52760  0.14650  Biso   1.000  C
  H37      1.0000 0.59510  0.55730  0.12720  Biso   1.000  H
  C56      1.0000 0.63810  0.57690  0.18030  Biso   1.000  C
  H38      1.0000 0.63330  0.63950  0.18340  Biso   1.000  H
  C57      1.0000 0.66705  0.53440  0.20886  Biso   1.000  C
  C58      1.0000 0.67317  0.44490  0.20230  Biso   1.000  C
  H39      1.0000 0.69290  0.41300  0.22190  Biso   1.000  H
  C59      1.0000 0.65060  0.40100  0.16710  Biso   1.000  C
  H40      1.0000 0.65580  0.33920  0.16230  Biso   1.000  H
  N20      1.0000 0.83098  0.46530  0.39343  Biso   1.000  N
  C60      1.0000 0.82340  0.55110  0.39870  Biso   1.000  C
  H41      1.0000 0.83870  0.58260  0.42280  Biso   1.000  H
  C61      1.0000 0.79409  0.59820  0.37050  Biso   1.000  C
  H42      1.0000 0.78960  0.66050  0.37500  Biso   1.000  H
  C62      1.0000 0.77174  0.55200  0.33584  Biso   1.000  C
  C63      1.0000 0.77980  0.46100  0.33020  Biso   1.000  C
  H43      1.0000 0.76520  0.42760  0.30640  Biso   1.000  H
  C64      1.0000 0.80920  0.42070  0.35970  Biso   1.000  C
  H44      1.0000 0.81430  0.35850  0.35610  Biso   1.000  H
  N21      1.0000 0.68378  0.00300  0.27560  Biso   1.000  N
  C65      1.0000 0.71350  0.96960  0.30310  Biso   1.000  C
  H45      1.0000 0.73060  0.01010  0.32140  Biso   1.000  H
  C66      1.0000 0.72140  0.87740  0.30710  Biso   1.000  C
  H46      1.0000 0.74320  0.85580  0.32810  Biso   1.000  H
  C67      1.0000 0.69749  0.81870  0.28040  Biso   1.000  C
  C68      1.0000 0.66540  0.85410  0.25170  Biso   1.000  C
  H47      1.0000 0.64760  0.81520  0.23330  Biso   1.000  H
  C69      1.0000 0.65950  0.94630  0.25030  Biso   1.000  C
  H48      1.0000 0.63750  0.97010  0.23070  Biso   1.000  H
  C70      1.0000 0.69064  0.58660  0.24567  Biso   1.000  C
  N22      1.0000 0.71967  0.54460  0.27261  Biso   1.000  N
  C71      1.0000 0.73968  0.59700  0.30461  Biso   1.000  C
  N23      1.0000 0.73353  0.68480  0.30981  Biso   1.000  N
  C72      1.0000 0.70463  0.71940  0.27990  Biso   1.000  C
  N24      1.0000 0.68138  0.67370  0.24832  Biso   1.000  N
  Zn9      1.0000 0.67620  0.86020  0.77620  Biso   1.000  Zn
  I19      1.0000 0.73950  0.77880  0.80430  Biso   1.000  I
  I20      1.0000 0.63220  0.83300  0.70030  Biso   1.000  I
  Zn10     1.0000 0.58740  0.38340  0.08950  Biso   1.000  Zn
  I21      1.0000 0.52640  0.34660  0.12120  Biso   1.000  I
  I22      1.0000 0.62450  0.27020  0.05240  Biso   1.000  I
  I23      1.0000 0.88580  0.25610  0.40650  Biso   1.000  I
  I24      1.0000 0.84952  0.39130  0.50789  Biso   1.000  I
  Zn11     1.0000 0.37390  0.09985  0.93819  Biso   1.000  Zn
  Zn12     1.0000 0.16900  0.64150  0.26610  Biso   1.000  Zn
  I25      1.0000 0.22939  0.73640  0.28940  Biso   1.000  I
  I26      1.0000 0.12268  0.65840  0.19375  Biso   1.000  I
  Zn13     1.0000 0.08014  0.13030  0.59210  Biso   1.000  Zn
  I27      1.0000 0.02446  0.15204  0.62888  Biso   1.000  I
  I28      1.0000 0.11672  0.24310  0.55498  Biso   1.000  I
  I29      1.0000 0.39537  0.23580  0.89886  Biso   1.000  I
  I30      1.0000 0.35571  0.08660  0.01258  Biso   1.000  I
  N25      1.0000 0.13898  0.65930  0.31800  Biso   1.000  N
  C73      1.0000 0.10680  0.61200  0.31670  Biso   1.000  C
  H49      1.0000 0.10000  0.56670  0.29480  Biso   1.000  H
  C74      1.0000 0.08240  0.62600  0.34630  Biso   1.000  C
  H50      1.0000 0.05860  0.59310  0.34340  Biso   1.000  H
  C75      1.0000 0.09236  0.68680  0.37940  Biso   1.000  C
  C76      1.0000 0.12710  0.73370  0.38120  Biso   1.000  C
  H51      1.0000 0.13530  0.77700  0.40370  Biso   1.000  H
  C77      1.0000 0.14930  0.71790  0.35080  Biso   1.000  C
  H52      1.0000 0.17330  0.74990  0.35300  Biso   1.000  H
  N26      1.0000 0.06851  0.01840  0.54747  Biso   1.000  N
  C78      1.0000 0.03721  0.96650  0.54607  Biso   1.000  C
  H53      1.0000 0.01860  0.98310  0.56310  Biso   1.000  H
  C79      1.0000 0.03083  0.88920  0.52070  Biso   1.000  C
  H54      1.0000 0.00850  0.85270  0.52090  Biso   1.000  H
  C80      1.0000 0.05727  0.86570  0.49497  Biso   1.000  C
  C81      1.0000 0.09010  0.92010  0.49570  Biso   1.000  C
  H55      1.0000 0.10910  0.90570  0.47890  Biso   1.000  H
  C82      1.0000 0.09360  0.99720  0.52260  Biso   1.000  C
  H56      1.0000 0.11520  0.03610  0.52290  Biso   1.000  H
  N27      1.0000 0.92049  0.48750  0.44153  Biso   1.000  N
  C83      1.0000 0.93390  0.50110  0.40610  Biso   1.000  C
  H57      1.0000 0.92130  0.47240  0.37970  Biso   1.000  H
  C84      1.0000 0.96610  0.55650  0.40530  Biso   1.000  C
  H58      1.0000 0.97550  0.56500  0.37890  Biso   1.000  H
  C85      1.0000 0.98378  0.59820  0.44311  Biso   1.000  C
  C86      1.0000 0.96748  0.58980  0.47940  Biso   1.000  C
  H59      1.0000 0.97780  0.62240  0.50550  Biso   1.000  H
  C87      1.0000 0.93561  0.53320  0.47750  Biso   1.000  C
  H60      1.0000 0.92430  0.52690  0.50270  Biso   1.000  H
  C88      1.0000 0.06766  0.70300  0.41174  Biso   1.000  C
  N28      1.0000 0.07468  0.77510  0.43756  Biso   1.000  N
  C89      1.0000 0.05198  0.78380  0.46687  Biso   1.000  C
  N29      1.0000 0.02340  0.72600  0.47197  Biso   1.000  N
  C90      1.0000 0.01773  0.65910  0.44272  Biso   1.000  C
  N30      1.0000 0.03828  0.64380  0.41212  Biso   1.000  N
  N31      1.0000 0.12194  0.05810  0.63974  Biso   1.000  N
  C91      1.0000 0.11590  0.97240  0.64650  Biso   1.000  C
  H61      1.0000 0.09510  0.94270  0.62720  Biso   1.000  H
  C92      1.0000 0.13810  0.92310  0.68030  Biso   1.000  C
  H62      1.0000 0.13330  0.86050  0.68340  Biso   1.000  H
  C93      1.0000 0.16705  0.96560  0.70886  Biso   1.000  C
  C94      1.0000 0.17317  0.05510  0.70230  Biso   1.000  C
  H63      1.0000 0.19290  0.08700  0.72190  Biso   1.000  H
  C95      1.0000 0.15060  0.09900  0.66710  Biso   1.000  C
  H64      1.0000 0.15580  0.16080  0.66230  Biso   1.000  H
  N32      1.0000 0.33098  0.03470  0.89343  Biso   1.000  N
  C96      1.0000 0.32340  0.94890  0.89870  Biso   1.000  C
  H65      1.0000 0.33870  0.91740  0.92280  Biso   1.000  H
  C97      1.0000 0.29409  0.90180  0.87050  Biso   1.000  C
  H66      1.0000 0.28960  0.83950  0.87500  Biso   1.000  H
  C98      1.0000 0.27174  0.94800  0.83584  Biso   1.000  C
  C99      1.0000 0.27980  0.03900  0.83020  Biso   1.000  C
  H67      1.0000 0.26520  0.07240  0.80640  Biso   1.000  H
  C100     1.0000 0.30920  0.07930  0.85970  Biso   1.000  C
  H68      1.0000 0.31430  0.14150  0.85610  Biso   1.000  H
  N33      1.0000 0.18378  0.49700  0.77560  Biso   1.000  N
  C101     1.0000 0.21350  0.53040  0.80310  Biso   1.000  C
  H69      1.0000 0.23060  0.48990  0.82140  Biso   1.000  H
  C102     1.0000 0.22140  0.62260  0.80710  Biso   1.000  C
  H70      1.0000 0.24320  0.64420  0.82810  Biso   1.000  H
  C103     1.0000 0.19749  0.68130  0.78040  Biso   1.000  C
  C104     1.0000 0.16540  0.64590  0.75170  Biso   1.000  C
  H71      1.0000 0.14760  0.68480  0.73330  Biso   1.000  H
  C105     1.0000 0.15950  0.55370  0.75030  Biso   1.000  C
  H72      1.0000 0.13750  0.52990  0.73070  Biso   1.000  H
  C106     1.0000 0.19064  0.91340  0.74567  Biso   1.000  C
  N34      1.0000 0.21967  0.95540  0.77261  Biso   1.000  N
  C107     1.0000 0.23968  0.90300  0.80461  Biso   1.000  C
  N35      1.0000 0.23353  0.81520  0.80981  Biso   1.000  N
  C108     1.0000 0.20463  0.78060  0.77990  Biso   1.000  C
  N36      1.0000 0.18138  0.82630  0.74832  Biso   1.000  N
  Zn14     1.0000 0.17620  0.63980  0.27620  Biso   1.000  Zn
  I31      1.0000 0.23950  0.72120  0.30430  Biso   1.000  I
  I32      1.0000 0.13220  0.66700  0.20030  Biso   1.000  I
  Zn15     1.0000 0.08740  0.11660  0.58950  Biso   1.000  Zn
  I33      1.0000 0.02640  0.15340  0.62120  Biso   1.000  I
  I34      1.0000 0.12450  0.22980  0.55240  Biso   1.000  I
  I35      1.0000 0.38580  0.24390  0.90650  Biso   1.000  I
  I36      1.0000 0.34952  0.10870  0.00789  Biso   1.000  I
  Zn16     1.0000 0.87390  0.59985  0.93819  Biso   1.000  Zn
  Zn17     1.0000 0.66900  0.14150  0.26610  Biso   1.000  Zn
  I37      1.0000 0.72939  0.23640  0.28940  Biso   1.000  I
  I38      1.0000 0.62268  0.15840  0.19375  Biso   1.000  I
  Zn18     1.0000 0.58014  0.63030  0.59210  Biso   1.000  Zn
  I39      1.0000 0.52446  0.65204  0.62888  Biso   1.000  I
  I40      1.0000 0.61672  0.74310  0.55498  Biso   1.000  I
  I41      1.0000 0.89537  0.73580  0.89886  Biso   1.000  I
  I42      1.0000 0.85571  0.58660  0.01258  Biso   1.000  I
  N37      1.0000 0.63898  0.15930  0.31800  Biso   1.000  N
  C109     1.0000 0.60680  0.11200  0.31670  Biso   1.000  C
  H73      1.0000 0.60000  0.06670  0.29480  Biso   1.000  H
  C110     1.0000 0.58240  0.12600  0.34630  Biso   1.000  C
  H74      1.0000 0.55860  0.09310  0.34340  Biso   1.000  H
  C111     1.0000 0.59236  0.18680  0.37940  Biso   1.000  C
  C112     1.0000 0.62710  0.23370  0.38120  Biso   1.000  C
  H75      1.0000 0.63530  0.27700  0.40370  Biso   1.000  H
  C113     1.0000 0.64930  0.21790  0.35080  Biso   1.000  C
  H76      1.0000 0.67330  0.24990  0.35300  Biso   1.000  H
  N38      1.0000 0.56851  0.51840  0.54747  Biso   1.000  N
  C114     1.0000 0.53721  0.46650  0.54607  Biso   1.000  C
  H77      1.0000 0.51860  0.48310  0.56310  Biso   1.000  H
  C115     1.0000 0.53083  0.38920  0.52070  Biso   1.000  C
  H78      1.0000 0.50850  0.35270  0.52090  Biso   1.000  H
  C116     1.0000 0.55727  0.36570  0.49497  Biso   1.000  C
  C117     1.0000 0.59010  0.42010  0.49570  Biso   1.000  C
  H79      1.0000 0.60910  0.40570  0.47890  Biso   1.000  H
  C118     1.0000 0.59360  0.49720  0.52260  Biso   1.000  C
  H80      1.0000 0.61520  0.53610  0.52290  Biso   1.000  H
  N39      1.0000 0.42049  0.98750  0.44153  Biso   1.000  N
  C119     1.0000 0.43390  0.00110  0.40610  Biso   1.000  C
  H81      1.0000 0.42130  0.97240  0.37970  Biso   1.000  H
  C120     1.0000 0.46610  0.05650  0.40530  Biso   1.000  C
  H82      1.0000 0.47550  0.06500  0.37890  Biso   1.000  H
  C121     1.0000 0.48378  0.09820  0.44311  Biso   1.000  C
  C122     1.0000 0.46748  0.08980  0.47940  Biso   1.000  C
  H83      1.0000 0.47780  0.12240  0.50550  Biso   1.000  H
  C123     1.0000 0.43561  0.03320  0.47750  Biso   1.000  C
  H84      1.0000 0.42430  0.02690  0.50270  Biso   1.000  H
  C124     1.0000 0.56766  0.20300  0.41174  Biso   1.000  C
  N40      1.0000 0.57468  0.27510  0.43756  Biso   1.000  N
  C125     1.0000 0.55198  0.28380  0.46687  Biso   1.000  C
  N41      1.0000 0.52340  0.22600  0.47197  Biso   1.000  N
  C126     1.0000 0.51773  0.15910  0.44272  Biso   1.000  C
  N42      1.0000 0.53828  0.14380  0.41212  Biso   1.000  N
  N43      1.0000 0.62194  0.55810  0.63974  Biso   1.000  N
  C127     1.0000 0.61590  0.47240  0.64650  Biso   1.000  C
  H85      1.0000 0.59510  0.44270  0.62720  Biso   1.000  H
  C128     1.0000 0.63810  0.42310  0.68030  Biso   1.000  C
  H86      1.0000 0.63330  0.36050  0.68340  Biso   1.000  H
  C129     1.0000 0.66705  0.46560  0.70886  Biso   1.000  C
  C130     1.0000 0.67317  0.55510  0.70230  Biso   1.000  C
  H87      1.0000 0.69290  0.58700  0.72190  Biso   1.000  H
  C131     1.0000 0.65060  0.59900  0.66710  Biso   1.000  C
  H88      1.0000 0.65580  0.66080  0.66230  Biso   1.000  H
  N44      1.0000 0.83098  0.53470  0.89343  Biso   1.000  N
  C132     1.0000 0.82340  0.44890  0.89870  Biso   1.000  C
  H89      1.0000 0.83870  0.41740  0.92280  Biso   1.000  H
  C133     1.0000 0.79409  0.40180  0.87050  Biso   1.000  C
  H90      1.0000 0.78960  0.33950  0.87500  Biso   1.000  H
  C134     1.0000 0.77174  0.44800  0.83584  Biso   1.000  C
  C135     1.0000 0.77980  0.53900  0.83020  Biso   1.000  C
  H91      1.0000 0.76520  0.57240  0.80640  Biso   1.000  H
  C136     1.0000 0.80920  0.57930  0.85970  Biso   1.000  C
  H92      1.0000 0.81430  0.64150  0.85610  Biso   1.000  H
  N45      1.0000 0.68378  0.99700  0.77560  Biso   1.000  N
  C137     1.0000 0.71350  0.03040  0.80310  Biso   1.000  C
  H93      1.0000 0.73060  0.98990  0.82140  Biso   1.000  H
  C138     1.0000 0.72140  0.12260  0.80710  Biso   1.000  C
  H94      1.0000 0.74320  0.14420  0.82810  Biso   1.000  H
  C139     1.0000 0.69749  0.18130  0.78040  Biso   1.000  C
  C140     1.0000 0.66540  0.14590  0.75170  Biso   1.000  C
  H95      1.0000 0.64760  0.18480  0.73330  Biso   1.000  H
  C141     1.0000 0.65950  0.05370  0.75030  Biso   1.000  C
  H96      1.0000 0.63750  0.02990  0.73070  Biso   1.000  H
  C142     1.0000 0.69064  0.41340  0.74567  Biso   1.000  C
  N46      1.0000 0.71967  0.45540  0.77261  Biso   1.000  N
  C143     1.0000 0.73968  0.40300  0.80461  Biso   1.000  C
  N47      1.0000 0.73353  0.31520  0.80981  Biso   1.000  N
  C144     1.0000 0.70463  0.28060  0.77990  Biso   1.000  C
  N48      1.0000 0.68138  0.32630  0.74832  Biso   1.000  N
  Zn19     1.0000 0.67620  0.13980  0.27620  Biso   1.000  Zn
  I43      1.0000 0.73950  0.22120  0.30430  Biso   1.000  I
  I44      1.0000 0.63220  0.16700  0.20030  Biso   1.000  I
  Zn20     1.0000 0.58740  0.61660  0.58950  Biso   1.000  Zn
  I45      1.0000 0.52640  0.65340  0.62120  Biso   1.000  I
  I46      1.0000 0.62450  0.72980  0.55240  Biso   1.000  I
  I47      1.0000 0.88580  0.74390  0.90650  Biso   1.000  I
  I48      1.0000 0.84952  0.60870  0.00789  Biso   1.000  I
  Zn21     1.0000 0.62610  0.90015  0.06181  Biso   1.000  Zn
  Zn22     1.0000 0.83100  0.35850  0.73390  Biso   1.000  Zn
  I49      1.0000 0.77061  0.26360  0.71060  Biso   1.000  I
  I50      1.0000 0.87732  0.34160  0.80625  Biso   1.000  I
  Zn23     1.0000 0.91986  0.86970  0.40790  Biso   1.000  Zn
  I51      1.0000 0.97554  0.84796  0.37112  Biso   1.000  I
  I52      1.0000 0.88328  0.75690  0.44502  Biso   1.000  I
  I53      1.0000 0.60463  0.76420  0.10114  Biso   1.000  I
  I54      1.0000 0.64429  0.91340  0.98742  Biso   1.000  I
  N49      1.0000 0.86102  0.34070  0.68200  Biso   1.000  N
  C145     1.0000 0.89320  0.38800  0.68330  Biso   1.000  C
  H97      1.0000 0.90000  0.43330  0.70520  Biso   1.000  H
  C146     1.0000 0.91760  0.37400  0.65370  Biso   1.000  C
  H98      1.0000 0.94140  0.40690  0.65660  Biso   1.000  H
  C147     1.0000 0.90764  0.31320  0.62060  Biso   1.000  C
  C148     1.0000 0.87290  0.26630  0.61880  Biso   1.000  C
  H99      1.0000 0.86470  0.22300  0.59630  Biso   1.000  H
  C149     1.0000 0.85070  0.28210  0.64920  Biso   1.000  C
  H100     1.0000 0.82670  0.25010  0.64700  Biso   1.000  H
  N50      1.0000 0.93149  0.98160  0.45253  Biso   1.000  N
  C150     1.0000 0.96279  0.03350  0.45393  Biso   1.000  C
  H101     1.0000 0.98140  0.01690  0.43690  Biso   1.000  H
  C151     1.0000 0.96917  0.11080  0.47930  Biso   1.000  C
  H102     1.0000 0.99150  0.14730  0.47910  Biso   1.000  H
  C152     1.0000 0.94273  0.13430  0.50503  Biso   1.000  C
  C153     1.0000 0.90990  0.07990  0.50430  Biso   1.000  C
  H103     1.0000 0.89090  0.09430  0.52110  Biso   1.000  H
  C154     1.0000 0.90640  0.00280  0.47740  Biso   1.000  C
  H104     1.0000 0.88480  0.96390  0.47710  Biso   1.000  H
  N51      1.0000 0.07951  0.51250  0.55847  Biso   1.000  N
  C155     1.0000 0.06610  0.49890  0.59390  Biso   1.000  C
  H105     1.0000 0.07870  0.52760  0.62030  Biso   1.000  H
  C156     1.0000 0.03390  0.44350  0.59470  Biso   1.000  C
  H106     1.0000 0.02450  0.43500  0.62110  Biso   1.000  H
  C157     1.0000 0.01622  0.40180  0.55689  Biso   1.000  C
  C158     1.0000 0.03252  0.41020  0.52060  Biso   1.000  C
  H107     1.0000 0.02220  0.37760  0.49450  Biso   1.000  H
  C159     1.0000 0.06439  0.46680  0.52250  Biso   1.000  C
  H108     1.0000 0.07570  0.47310  0.49730  Biso   1.000  H
  C160     1.0000 0.93234  0.29700  0.58826  Biso   1.000  C
  N52      1.0000 0.92532  0.22490  0.56244  Biso   1.000  N
  C161     1.0000 0.94802  0.21620  0.53313  Biso   1.000  C
  N53      1.0000 0.97660  0.27400  0.52803  Biso   1.000  N
  C162     1.0000 0.98227  0.34090  0.55728  Biso   1.000  C
  N54      1.0000 0.96172  0.35620  0.58788  Biso   1.000  N
  N55      1.0000 0.87806  0.94190  0.36026  Biso   1.000  N
  C163     1.0000 0.88410  0.02760  0.35350  Biso   1.000  C
  H109     1.0000 0.90490  0.05730  0.37280  Biso   1.000  H
  C164     1.0000 0.86190  0.07690  0.31970  Biso   1.000  C
  H110     1.0000 0.86670  0.13950  0.31660  Biso   1.000  H
  C165     1.0000 0.83295  0.03440  0.29114  Biso   1.000  C
  C166     1.0000 0.82683  0.94490  0.29770  Biso   1.000  C
  H111     1.0000 0.80710  0.91300  0.27810  Biso   1.000  H
  C167     1.0000 0.84940  0.90100  0.33290  Biso   1.000  C
  H112     1.0000 0.84420  0.83920  0.33770  Biso   1.000  H
  N56      1.0000 0.66902  0.96530  0.10657  Biso   1.000  N
  C168     1.0000 0.67660  0.05110  0.10130  Biso   1.000  C
  H113     1.0000 0.66130  0.08260  0.07720  Biso   1.000  H
  C169     1.0000 0.70591  0.09820  0.12950  Biso   1.000  C
  H114     1.0000 0.71040  0.16050  0.12500  Biso   1.000  H
  C170     1.0000 0.72826  0.05200  0.16416  Biso   1.000  C
  C171     1.0000 0.72020  0.96100  0.16980  Biso   1.000  C
  H115     1.0000 0.73480  0.92760  0.19360  Biso   1.000  H
  C172     1.0000 0.69080  0.92070  0.14030  Biso   1.000  C
  H116     1.0000 0.68570  0.85850  0.14390  Biso   1.000  H
  N57      1.0000 0.81622  0.50300  0.22440  Biso   1.000  N
  C173     1.0000 0.78650  0.46960  0.19690  Biso   1.000  C
  H117     1.0000 0.76940  0.51010  0.17860  Biso   1.000  H
  C174     1.0000 0.77860  0.37740  0.19290  Biso   1.000  C
  H118     1.0000 0.75680  0.35580  0.17190  Biso   1.000  H
  C175     1.0000 0.80251  0.31870  0.21960  Biso   1.000  C
  C176     1.0000 0.83460  0.35410  0.24830  Biso   1.000  C
  H119     1.0000 0.85240  0.31520  0.26670  Biso   1.000  H
  C177     1.0000 0.84050  0.44630  0.24970  Biso   1.000  C
  H120     1.0000 0.86250  0.47010  0.26930  Biso   1.000  H
  C178     1.0000 0.80936  0.08660  0.25433  Biso   1.000  C
  N58      1.0000 0.78033  0.04460  0.22739  Biso   1.000  N
  C179     1.0000 0.76032  0.09700  0.19539  Biso   1.000  C
  N59      1.0000 0.76647  0.18480  0.19019  Biso   1.000  N
  C180     1.0000 0.79537  0.21940  0.22010  Biso   1.000  C
  N60      1.0000 0.81862  0.17370  0.25168  Biso   1.000  N
  Zn24     1.0000 0.82380  0.36020  0.72380  Biso   1.000  Zn
  I55      1.0000 0.76050  0.27880  0.69570  Biso   1.000  I
  I56      1.0000 0.86780  0.33300  0.79970  Biso   1.000  I
  Zn25     1.0000 0.91260  0.88340  0.41050  Biso   1.000  Zn
  I57      1.0000 0.97360  0.84660  0.37880  Biso   1.000  I
  I58      1.0000 0.87550  0.77020  0.44760  Biso   1.000  I
  I59      1.0000 0.61420  0.75610  0.09350  Biso   1.000  I
  I60      1.0000 0.65048  0.89130  0.99211  Biso   1.000  I
  Zn26     1.0000 0.12610  0.40015  0.06181  Biso   1.000  Zn
  Zn27     1.0000 0.33100  0.85850  0.73390  Biso   1.000  Zn
  I61      1.0000 0.27061  0.76360  0.71060  Biso   1.000  I
  I62      1.0000 0.37732  0.84160  0.80625  Biso   1.000  I
  Zn28     1.0000 0.41986  0.36970  0.40790  Biso   1.000  Zn
  I63      1.0000 0.47554  0.34796  0.37112  Biso   1.000  I
  I64      1.0000 0.38328  0.25690  0.44502  Biso   1.000  I
  I65      1.0000 0.10463  0.26420  0.10114  Biso   1.000  I
  I66      1.0000 0.14429  0.41340  0.98742  Biso   1.000  I
  N61      1.0000 0.36102  0.84070  0.68200  Biso   1.000  N
  C181     1.0000 0.39320  0.88800  0.68330  Biso   1.000  C
  H121     1.0000 0.40000  0.93330  0.70520  Biso   1.000  H
  C182     1.0000 0.41760  0.87400  0.65370  Biso   1.000  C
  H122     1.0000 0.44140  0.90690  0.65660  Biso   1.000  H
  C183     1.0000 0.40764  0.81320  0.62060  Biso   1.000  C
  C184     1.0000 0.37290  0.76630  0.61880  Biso   1.000  C
  H123     1.0000 0.36470  0.72300  0.59630  Biso   1.000  H
  C185     1.0000 0.35070  0.78210  0.64920  Biso   1.000  C
  H124     1.0000 0.32670  0.75010  0.64700  Biso   1.000  H
  N62      1.0000 0.43149  0.48160  0.45253  Biso   1.000  N
  C186     1.0000 0.46279  0.53350  0.45393  Biso   1.000  C
  H125     1.0000 0.48140  0.51690  0.43690  Biso   1.000  H
  C187     1.0000 0.46917  0.61080  0.47930  Biso   1.000  C
  H126     1.0000 0.49150  0.64730  0.47910  Biso   1.000  H
  C188     1.0000 0.44273  0.63430  0.50503  Biso   1.000  C
  C189     1.0000 0.40990  0.57990  0.50430  Biso   1.000  C
  H127     1.0000 0.39090  0.59430  0.52110  Biso   1.000  H
  C190     1.0000 0.40640  0.50280  0.47740  Biso   1.000  C
  H128     1.0000 0.38480  0.46390  0.47710  Biso   1.000  H
  N63      1.0000 0.57951  0.01250  0.55847  Biso   1.000  N
  C191     1.0000 0.56610  0.99890  0.59390  Biso   1.000  C
  H129     1.0000 0.57870  0.02760  0.62030  Biso   1.000  H
  C192     1.0000 0.53390  0.94350  0.59470  Biso   1.000  C
  H130     1.0000 0.52450  0.93500  0.62110  Biso   1.000  H
  C193     1.0000 0.51622  0.90180  0.55689  Biso   1.000  C
  C194     1.0000 0.53252  0.91020  0.52060  Biso   1.000  C
  H131     1.0000 0.52220  0.87760  0.49450  Biso   1.000  H
  C195     1.0000 0.56439  0.96680  0.52250  Biso   1.000  C
  H132     1.0000 0.57570  0.97310  0.49730  Biso   1.000  H
  C196     1.0000 0.43234  0.79700  0.58826  Biso   1.000  C
  N64      1.0000 0.42532  0.72490  0.56244  Biso   1.000  N
  C197     1.0000 0.44802  0.71620  0.53313  Biso   1.000  C
  N65      1.0000 0.47660  0.77400  0.52803  Biso   1.000  N
  C198     1.0000 0.48227  0.84090  0.55728  Biso   1.000  C
  N66      1.0000 0.46172  0.85620  0.58788  Biso   1.000  N
  N67      1.0000 0.37806  0.44190  0.36026  Biso   1.000  N
  C199     1.0000 0.38410  0.52760  0.35350  Biso   1.000  C
  H133     1.0000 0.40490  0.55730  0.37280  Biso   1.000  H
  C200     1.0000 0.36190  0.57690  0.31970  Biso   1.000  C
  H134     1.0000 0.36670  0.63950  0.31660  Biso   1.000  H
  C201     1.0000 0.33295  0.53440  0.29114  Biso   1.000  C
  C202     1.0000 0.32683  0.44490  0.29770  Biso   1.000  C
  H135     1.0000 0.30710  0.41300  0.27810  Biso   1.000  H
  C203     1.0000 0.34940  0.40100  0.33290  Biso   1.000  C
  H136     1.0000 0.34420  0.33920  0.33770  Biso   1.000  H
  N68      1.0000 0.16902  0.46530  0.10657  Biso   1.000  N
  C204     1.0000 0.17660  0.55110  0.10130  Biso   1.000  C
  H137     1.0000 0.16130  0.58260  0.07720  Biso   1.000  H
  C205     1.0000 0.20591  0.59820  0.12950  Biso   1.000  C
  H138     1.0000 0.21040  0.66050  0.12500  Biso   1.000  H
  C206     1.0000 0.22826  0.55200  0.16416  Biso   1.000  C
  C207     1.0000 0.22020  0.46100  0.16980  Biso   1.000  C
  H139     1.0000 0.23480  0.42760  0.19360  Biso   1.000  H
  C208     1.0000 0.19080  0.42070  0.14030  Biso   1.000  C
  H140     1.0000 0.18570  0.35850  0.14390  Biso   1.000  H
  N69      1.0000 0.31622  0.00300  0.22440  Biso   1.000  N
  C209     1.0000 0.28650  0.96960  0.19690  Biso   1.000  C
  H141     1.0000 0.26940  0.01010  0.17860  Biso   1.000  H
  C210     1.0000 0.27860  0.87740  0.19290  Biso   1.000  C
  H142     1.0000 0.25680  0.85580  0.17190  Biso   1.000  H
  C211     1.0000 0.30251  0.81870  0.21960  Biso   1.000  C
  C212     1.0000 0.33460  0.85410  0.24830  Biso   1.000  C
  H143     1.0000 0.35240  0.81520  0.26670  Biso   1.000  H
  C213     1.0000 0.34050  0.94630  0.24970  Biso   1.000  C
  H144     1.0000 0.36250  0.97010  0.26930  Biso   1.000  H
  C214     1.0000 0.30936  0.58660  0.25433  Biso   1.000  C
  N70      1.0000 0.28033  0.54460  0.22739  Biso   1.000  N
  C215     1.0000 0.26032  0.59700  0.19539  Biso   1.000  C
  N71      1.0000 0.26647  0.68480  0.19019  Biso   1.000  N
  C216     1.0000 0.29537  0.71940  0.22010  Biso   1.000  C
  N72      1.0000 0.31862  0.67370  0.25168  Biso   1.000  N
  Zn29     1.0000 0.32380  0.86020  0.72380  Biso   1.000  Zn
  I67      1.0000 0.26050  0.77880  0.69570  Biso   1.000  I
  I68      1.0000 0.36780  0.83300  0.79970  Biso   1.000  I
  Zn30     1.0000 0.41260  0.38340  0.41050  Biso   1.000  Zn
  I69      1.0000 0.47360  0.34660  0.37880  Biso   1.000  I
  I70      1.0000 0.37550  0.27020  0.44760  Biso   1.000  I
  I71      1.0000 0.11420  0.25610  0.09350  Biso   1.000  I
  I72      1.0000 0.15048  0.39130  0.99211  Biso   1.000  I
  Zn31     1.0000 0.62610  0.09985  0.56181  Biso   1.000  Zn
  Zn32     1.0000 0.83100  0.64150  0.23390  Biso   1.000  Zn
  I73      1.0000 0.77061  0.73640  0.21060  Biso   1.000  I
  I74      1.0000 0.87732  0.65840  0.30625  Biso   1.000  I
  Zn33     1.0000 0.91986  0.13030  0.90790  Biso   1.000  Zn
  I75      1.0000 0.97554  0.15204  0.87112  Biso   1.000  I
  I76      1.0000 0.88328  0.24310  0.94502  Biso   1.000  I
  I77      1.0000 0.60463  0.23580  0.60114  Biso   1.000  I
  I78      1.0000 0.64429  0.08660  0.48742  Biso   1.000  I
  N73      1.0000 0.86102  0.65930  0.18200  Biso   1.000  N
  C217     1.0000 0.89320  0.61200  0.18330  Biso   1.000  C
  H145     1.0000 0.90000  0.56670  0.20520  Biso   1.000  H
  C218     1.0000 0.91760  0.62600  0.15370  Biso   1.000  C
  H146     1.0000 0.94140  0.59310  0.15660  Biso   1.000  H
  C219     1.0000 0.90764  0.68680  0.12060  Biso   1.000  C
  C220     1.0000 0.87290  0.73370  0.11880  Biso   1.000  C
  H147     1.0000 0.86470  0.77700  0.09630  Biso   1.000  H
  C221     1.0000 0.85070  0.71790  0.14920  Biso   1.000  C
  H148     1.0000 0.82670  0.74990  0.14700  Biso   1.000  H
  N74      1.0000 0.93149  0.01840  0.95253  Biso   1.000  N
  C222     1.0000 0.96279  0.96650  0.95393  Biso   1.000  C
  H149     1.0000 0.98140  0.98310  0.93690  Biso   1.000  H
  C223     1.0000 0.96917  0.88920  0.97930  Biso   1.000  C
  H150     1.0000 0.99150  0.85270  0.97910  Biso   1.000  H
  C224     1.0000 0.94273  0.86570  0.00503  Biso   1.000  C
  C225     1.0000 0.90990  0.92010  0.00430  Biso   1.000  C
  H151     1.0000 0.89090  0.90570  0.02110  Biso   1.000  H
  C226     1.0000 0.90640  0.99720  0.97740  Biso   1.000  C
  H152     1.0000 0.88480  0.03610  0.97710  Biso   1.000  H
  N75      1.0000 0.07951  0.48750  0.05847  Biso   1.000  N
  C227     1.0000 0.06610  0.50110  0.09390  Biso   1.000  C
  H153     1.0000 0.07870  0.47240  0.12030  Biso   1.000  H
  C228     1.0000 0.03390  0.55650  0.09470  Biso   1.000  C
  H154     1.0000 0.02450  0.56500  0.12110  Biso   1.000  H
  C229     1.0000 0.01622  0.59820  0.05689  Biso   1.000  C
  C230     1.0000 0.03252  0.58980  0.02060  Biso   1.000  C
  H155     1.0000 0.02220  0.62240  0.99450  Biso   1.000  H
  C231     1.0000 0.06439  0.53320  0.02250  Biso   1.000  C
  H156     1.0000 0.07570  0.52690  0.99730  Biso   1.000  H
  C232     1.0000 0.93234  0.70300  0.08826  Biso   1.000  C
  N76      1.0000 0.92532  0.77510  0.06244  Biso   1.000  N
  C233     1.0000 0.94802  0.78380  0.03313  Biso   1.000  C
  N77      1.0000 0.97660  0.72600  0.02803  Biso   1.000  N
  C234     1.0000 0.98227  0.65910  0.05728  Biso   1.000  C
  N78      1.0000 0.96172  0.64380  0.08788  Biso   1.000  N
  N79      1.0000 0.87806  0.05810  0.86026  Biso   1.000  N
  C235     1.0000 0.88410  0.97240  0.85350  Biso   1.000  C
  H157     1.0000 0.90490  0.94270  0.87280  Biso   1.000  H
  C236     1.0000 0.86190  0.92310  0.81970  Biso   1.000  C
  H158     1.0000 0.86670  0.86050  0.81660  Biso   1.000  H
  C237     1.0000 0.83295  0.96560  0.79114  Biso   1.000  C
  C238     1.0000 0.82683  0.05510  0.79770  Biso   1.000  C
  H159     1.0000 0.80710  0.08700  0.77810  Biso   1.000  H
  C239     1.0000 0.84940  0.09900  0.83290  Biso   1.000  C
  H160     1.0000 0.84420  0.16080  0.83770  Biso   1.000  H
  N80      1.0000 0.66902  0.03470  0.60657  Biso   1.000  N
  C240     1.0000 0.67660  0.94890  0.60130  Biso   1.000  C
  H161     1.0000 0.66130  0.91740  0.57720  Biso   1.000  H
  C241     1.0000 0.70591  0.90180  0.62950  Biso   1.000  C
  H162     1.0000 0.71040  0.83950  0.62500  Biso   1.000  H
  C242     1.0000 0.72826  0.94800  0.66416  Biso   1.000  C
  C243     1.0000 0.72020  0.03900  0.66980  Biso   1.000  C
  H163     1.0000 0.73480  0.07240  0.69360  Biso   1.000  H
  C244     1.0000 0.69080  0.07930  0.64030  Biso   1.000  C
  H164     1.0000 0.68570  0.14150  0.64390  Biso   1.000  H
  N81      1.0000 0.81622  0.49700  0.72440  Biso   1.000  N
  C245     1.0000 0.78650  0.53040  0.69690  Biso   1.000  C
  H165     1.0000 0.76940  0.48990  0.67860  Biso   1.000  H
  C246     1.0000 0.77860  0.62260  0.69290  Biso   1.000  C
  H166     1.0000 0.75680  0.64420  0.67190  Biso   1.000  H
  C247     1.0000 0.80251  0.68130  0.71960  Biso   1.000  C
  C248     1.0000 0.83460  0.64590  0.74830  Biso   1.000  C
  H167     1.0000 0.85240  0.68480  0.76670  Biso   1.000  H
  C249     1.0000 0.84050  0.55370  0.74970  Biso   1.000  C
  H168     1.0000 0.86250  0.52990  0.76930  Biso   1.000  H
  C250     1.0000 0.80936  0.91340  0.75433  Biso   1.000  C
  N82      1.0000 0.78033  0.95540  0.72739  Biso   1.000  N
  C251     1.0000 0.76032  0.90300  0.69539  Biso   1.000  C
  N83      1.0000 0.76647  0.81520  0.69019  Biso   1.000  N
  C252     1.0000 0.79537  0.78060  0.72010  Biso   1.000  C
  N84      1.0000 0.81862  0.82630  0.75168  Biso   1.000  N
  Zn34     1.0000 0.82380  0.63980  0.22380  Biso   1.000  Zn
  I79      1.0000 0.76050  0.72120  0.19570  Biso   1.000  I
  I80      1.0000 0.86780  0.66700  0.29970  Biso   1.000  I
  Zn35     1.0000 0.91260  0.11660  0.91050  Biso   1.000  Zn
  I81      1.0000 0.97360  0.15340  0.87880  Biso   1.000  I
  I82      1.0000 0.87550  0.22980  0.94760  Biso   1.000  I
  I83      1.0000 0.61420  0.24390  0.59350  Biso   1.000  I
  I84      1.0000 0.65048  0.10870  0.49211  Biso   1.000  I
  Zn36     1.0000 0.12610  0.59985  0.56181  Biso   1.000  Zn
  Zn37     1.0000 0.33100  0.14150  0.23390  Biso   1.000  Zn
  I85      1.0000 0.27061  0.23640  0.21060  Biso   1.000  I
  I86      1.0000 0.37732  0.15840  0.30625  Biso   1.000  I
  Zn38     1.0000 0.41986  0.63030  0.90790  Biso   1.000  Zn
  I87      1.0000 0.47554  0.65204  0.87112  Biso   1.000  I
  I88      1.0000 0.38328  0.74310  0.94502  Biso   1.000  I
  I89      1.0000 0.10463  0.73580  0.60114  Biso   1.000  I
  I90      1.0000 0.14429  0.58660  0.48742  Biso   1.000  I
  N85      1.0000 0.36102  0.15930  0.18200  Biso   1.000  N
  C253     1.0000 0.39320  0.11200  0.18330  Biso   1.000  C
  H169     1.0000 0.40000  0.06670  0.20520  Biso   1.000  H
  C254     1.0000 0.41760  0.12600  0.15370  Biso   1.000  C
  H170     1.0000 0.44140  0.09310  0.15660  Biso   1.000  H
  C255     1.0000 0.40764  0.18680  0.12060  Biso   1.000  C
  C256     1.0000 0.37290  0.23370  0.11880  Biso   1.000  C
  H171     1.0000 0.36470  0.27700  0.09630  Biso   1.000  H
  C257     1.0000 0.35070  0.21790  0.14920  Biso   1.000  C
  H172     1.0000 0.32670  0.24990  0.14700  Biso   1.000  H
  N86      1.0000 0.43149  0.51840  0.95253  Biso   1.000  N
  C258     1.0000 0.46279  0.46650  0.95393  Biso   1.000  C
  H173     1.0000 0.48140  0.48310  0.93690  Biso   1.000  H
  C259     1.0000 0.46917  0.38920  0.97930  Biso   1.000  C
  H174     1.0000 0.49150  0.35270  0.97910  Biso   1.000  H
  C260     1.0000 0.44273  0.36570  0.00503  Biso   1.000  C
  C261     1.0000 0.40990  0.42010  0.00430  Biso   1.000  C
  H175     1.0000 0.39090  0.40570  0.02110  Biso   1.000  H
  C262     1.0000 0.40640  0.49720  0.97740  Biso   1.000  C
  H176     1.0000 0.38480  0.53610  0.97710  Biso   1.000  H
  N87      1.0000 0.57951  0.98750  0.05847  Biso   1.000  N
  C263     1.0000 0.56610  0.00110  0.09390  Biso   1.000  C
  H177     1.0000 0.57870  0.97240  0.12030  Biso   1.000  H
  C264     1.0000 0.53390  0.05650  0.09470  Biso   1.000  C
  H178     1.0000 0.52450  0.06500  0.12110  Biso   1.000  H
  C265     1.0000 0.51622  0.09820  0.05689  Biso   1.000  C
  C266     1.0000 0.53252  0.08980  0.02060  Biso   1.000  C
  H179     1.0000 0.52220  0.12240  0.99450  Biso   1.000  H
  C267     1.0000 0.56439  0.03320  0.02250  Biso   1.000  C
  H180     1.0000 0.57570  0.02690  0.99730  Biso   1.000  H
  C268     1.0000 0.43234  0.20300  0.08826  Biso   1.000  C
  N88      1.0000 0.42532  0.27510  0.06244  Biso   1.000  N
  C269     1.0000 0.44802  0.28380  0.03313  Biso   1.000  C
  N89      1.0000 0.47660  0.22600  0.02803  Biso   1.000  N
  C270     1.0000 0.48227  0.15910  0.05728  Biso   1.000  C
  N90      1.0000 0.46172  0.14380  0.08788  Biso   1.000  N
  N91      1.0000 0.37806  0.55810  0.86026  Biso   1.000  N
  C271     1.0000 0.38410  0.47240  0.85350  Biso   1.000  C
  H181     1.0000 0.40490  0.44270  0.87280  Biso   1.000  H
  C272     1.0000 0.36190  0.42310  0.81970  Biso   1.000  C
  H182     1.0000 0.36670  0.36050  0.81660  Biso   1.000  H
  C273     1.0000 0.33295  0.46560  0.79114  Biso   1.000  C
  C274     1.0000 0.32683  0.55510  0.79770  Biso   1.000  C
  H183     1.0000 0.30710  0.58700  0.77810  Biso   1.000  H
  C275     1.0000 0.34940  0.59900  0.83290  Biso   1.000  C
  H184     1.0000 0.34420  0.66080  0.83770  Biso   1.000  H
  N92      1.0000 0.16902  0.53470  0.60657  Biso   1.000  N
  C276     1.0000 0.17660  0.44890  0.60130  Biso   1.000  C
  H185     1.0000 0.16130  0.41740  0.57720  Biso   1.000  H
  C277     1.0000 0.20591  0.40180  0.62950  Biso   1.000  C
  H186     1.0000 0.21040  0.33950  0.62500  Biso   1.000  H
  C278     1.0000 0.22826  0.44800  0.66416  Biso   1.000  C
  C279     1.0000 0.22020  0.53900  0.66980  Biso   1.000  C
  H187     1.0000 0.23480  0.57240  0.69360  Biso   1.000  H
  C280     1.0000 0.19080  0.57930  0.64030  Biso   1.000  C
  H188     1.0000 0.18570  0.64150  0.64390  Biso   1.000  H
  N93      1.0000 0.31622  0.99700  0.72440  Biso   1.000  N
  C281     1.0000 0.28650  0.03040  0.69690  Biso   1.000  C
  H189     1.0000 0.26940  0.98990  0.67860  Biso   1.000  H
  C282     1.0000 0.27860  0.12260  0.69290  Biso   1.000  C
  H190     1.0000 0.25680  0.14420  0.67190  Biso   1.000  H
  C283     1.0000 0.30251  0.18130  0.71960  Biso   1.000  C
  C284     1.0000 0.33460  0.14590  0.74830  Biso   1.000  C
  H191     1.0000 0.35240  0.18480  0.76670  Biso   1.000  H
  C285     1.0000 0.34050  0.05370  0.74970  Biso   1.000  C
  H192     1.0000 0.36250  0.02990  0.76930  Biso   1.000  H
  C286     1.0000 0.30936  0.41340  0.75433  Biso   1.000  C
  N94      1.0000 0.28033  0.45540  0.72739  Biso   1.000  N
  C287     1.0000 0.26032  0.40300  0.69539  Biso   1.000  C
  N95      1.0000 0.26647  0.31520  0.69019  Biso   1.000  N
  C288     1.0000 0.29537  0.28060  0.72010  Biso   1.000  C
  N96      1.0000 0.31862  0.32630  0.75168  Biso   1.000  N
  Zn39     1.0000 0.32380  0.13980  0.22380  Biso   1.000  Zn
  I91      1.0000 0.26050  0.22120  0.19570  Biso   1.000  I
  I92      1.0000 0.36780  0.16700  0.29970  Biso   1.000  I
  Zn40     1.0000 0.41260  0.61660  0.91050  Biso   1.000  Zn
  I93      1.0000 0.47360  0.65340  0.87880  Biso   1.000  I
  I94      1.0000 0.37550  0.72980  0.94760  Biso   1.000  I
  I95      1.0000 0.11420  0.74390  0.59350  Biso   1.000  I
  I96      1.0000 0.15048  0.60870  0.49211  Biso   1.000  I
