data_image0
_cell_length_a       34.651
_cell_length_b       14.9888
_cell_length_c       30.113
_cell_angle_alpha    90
_cell_angle_beta     100.735
_cell_angle_gamma    90

_symmetry_space_group_name_H-M    "P 1"
_symmetry_int_tables_number       1

loop_
  _symmetry_equiv_pos_as_xyz
  'x, y, z'

loop_
  _atom_site_label
  _atom_site_occupancy
  _atom_site_fract_x
  _atom_site_fract_y
  _atom_site_fract_z
  _atom_site_thermal_displace_type
  _atom_site_B_iso_or_equiv
  _atom_site_type_symbol
  Zn1      1.0000 0.16838  0.36350  0.76855  Biso   1.000  Zn
  I1       1.0000 0.12346  0.34561  0.69263  Biso   1.000  I
  I2       1.0000 0.23033  0.27220  0.79546  Biso   1.000  I
  Zn2      1.0000 0.86789  0.59983  0.94978  Biso   1.000  Zn
  I3       1.0000 0.84213  0.57410  0.02138  Biso   1.000  I
  I4       1.0000 0.88230  0.74384  0.91713  Biso   1.000  I
  Zn3      1.0000 0.07813  0.87215  0.09215  Biso   1.000  Zn
  I5       1.0000 0.02395  0.84306  0.13660  Biso   1.000  I
  I6       1.0000 0.11705  0.76130  0.05500  Biso   1.000  I
  N1       1.0000 0.13750  0.35030  0.82120  Biso   1.000  N
  C1       1.0000 0.14810  0.29550  0.85600  Biso   1.000  C
  H1       1.0000 0.17300  0.26750  0.85960  Biso   1.000  H
  C2       1.0000 0.12440  0.27730  0.88730  Biso   1.000  C
  H2       1.0000 0.13270  0.23640  0.91130  Biso   1.000  H
  C3       1.0000 0.08888  0.31970  0.88300  Biso   1.000  C
  C4       1.0000 0.07770  0.37660  0.84590  Biso   1.000  C
  H3       1.0000 0.05290  0.40580  0.84130  Biso   1.000  H
  C5       1.0000 0.10260  0.38970  0.81670  Biso   1.000  C
  H4       1.0000 0.09470  0.42890  0.79190  Biso   1.000  H
  N2       1.0000 0.91567  0.51650  0.95261  Biso   1.000  N
  C6       1.0000 0.93178  0.46990  0.98930  Biso   1.000  C
  H5       1.0000 0.92130  0.47600  0.01610  Biso   1.000  H
  C7       1.0000 0.96349  0.41290  0.98929  Biso   1.000  C
  H6       1.0000 0.97430  0.37990  0.01560  Biso   1.000  H
  C8       1.0000 0.97890  0.40490  0.95057  Biso   1.000  C
  C9       1.0000 0.96160  0.45180  0.91230  Biso   1.000  C
  H7       1.0000 0.97120  0.44650  0.88490  Biso   1.000  H
  C10      1.0000 0.93000  0.50640  0.91520  Biso   1.000  C
  H8       1.0000 0.91800  0.53830  0.88890  Biso   1.000  H
  N3       1.0000 0.06027  0.97540  0.04634  Biso   1.000  N
  C11      1.0000 0.03234  0.03400  0.05170  Biso   1.000  C
  H9       1.0000 0.01620  0.02100  0.07320  Biso   1.000  H
  C12      1.0000 0.02585  0.11210  0.02756  Biso   1.000  C
  H10      1.0000 0.00590  0.15220  0.03270  Biso   1.000  H
  C13      1.0000 0.04874  0.13160  0.99567  Biso   1.000  C
  C14      1.0000 0.07704  0.06870  0.98852  Biso   1.000  C
  H11      1.0000 0.09280  0.07870  0.96630  Biso   1.000  H
  C15      1.0000 0.08150  0.99240  0.01422  Biso   1.000  C
  H12      1.0000 0.10040  0.94970  0.00910  Biso   1.000  H
  C16      1.0000 0.06281  0.30300  0.91593  Biso   1.000  C
  N4       1.0000 0.03404  0.36170  0.91736  Biso   1.000  N
  C17      1.0000 0.01196  0.34260  0.94813  Biso   1.000  C
  N5       1.0000 0.01609  0.27240  0.97582  Biso   1.000  N
  C18      1.0000 0.04455  0.21590  0.96961  Biso   1.000  C
  N6       1.0000 0.06917  0.22860  0.94057  Biso   1.000  N
  N7       1.0000 0.18438  0.50030  0.77569  Biso   1.000  N
  C19      1.0000 0.16400  0.55410  0.74730  Biso   1.000  C
  H13      1.0000 0.14400  0.52980  0.72470  Biso   1.000  H
  C20      1.0000 0.16980  0.64550  0.74790  Biso   1.000  C
  H14      1.0000 0.15440  0.68230  0.72570  Biso   1.000  H
  C21      1.0000 0.19794  0.68230  0.78076  Biso   1.000  C
  C22      1.0000 0.21970  0.62570  0.81070  Biso   1.000  C
  H15      1.0000 0.24010  0.64750  0.83360  Biso   1.000  H
  C23      1.0000 0.21120  0.53360  0.80690  Biso   1.000  C
  H16      1.0000 0.22590  0.49420  0.82830  Biso   1.000  H
  N8       1.0000 0.32698  0.03490  0.90126  Biso   1.000  N
  C24      1.0000 0.30380  0.08010  0.86860  Biso   1.000  C
  H17      1.0000 0.30720  0.14280  0.86700  Biso   1.000  H
  C25      1.0000 0.27522  0.04010  0.83730  Biso   1.000  C
  H18      1.0000 0.25950  0.07460  0.81440  Biso   1.000  H
  C26      1.0000 0.26951  0.94880  0.83946  Biso   1.000  C
  C27      1.0000 0.29334  0.90120  0.87319  Biso   1.000  C
  H19      1.0000 0.29020  0.83860  0.87590  Biso   1.000  H
  C28      1.0000 0.32184  0.94630  0.90290  Biso   1.000  C
  H20      1.0000 0.33860  0.91320  0.92560  Biso   1.000  H
  N9       1.0000 0.11928  0.05700  0.63789  Biso   1.000  N
  C29      1.0000 0.14752  0.09800  0.66691  Biso   1.000  C
  H21      1.0000 0.15140  0.16010  0.66310  Biso   1.000  H
  C30      1.0000 0.17150  0.05430  0.70242  Biso   1.000  C
  H22      1.0000 0.19090  0.08620  0.72280  Biso   1.000  H
  C31      1.0000 0.16649  0.96360  0.70757  Biso   1.000  C
  C32      1.0000 0.13820  0.92090  0.67670  Biso   1.000  C
  H23      1.0000 0.13460  0.85830  0.67860  Biso   1.000  H
  C33      1.0000 0.11530  0.96950  0.64290  Biso   1.000  C
  H24      1.0000 0.09570  0.93910  0.62210  Biso   1.000  H
  C34      1.0000 0.20448  0.78080  0.78056  Biso   1.000  C
  N10      1.0000 0.23306  0.81610  0.81139  Biso   1.000  N
  C35      1.0000 0.23870  0.90380  0.80609  Biso   1.000  C
  N11      1.0000 0.21865  0.95460  0.77347  Biso   1.000  N
  C36      1.0000 0.19033  0.91230  0.74503  Biso   1.000  C
  N12      1.0000 0.18135  0.82560  0.74766  Biso   1.000  N
  Zn4      1.0000 0.17770  0.36510  0.77870  Biso   1.000  Zn
  I7       1.0000 0.13340  0.33440  0.70290  Biso   1.000  I
  I8       1.0000 0.24100  0.28380  0.80850  Biso   1.000  I
  Zn5      1.0000 0.19560  0.36360  0.80180  Biso   1.000  Zn
  I9       1.0000 0.16230  0.31150  0.72570  Biso   1.000  I
  I10      1.0000 0.25970  0.30670  0.84540  Biso   1.000  I
  Zn6      1.0000 0.86070  0.58170  0.96010  Biso   1.000  Zn
  I11      1.0000 0.83370  0.52830  0.03210  Biso   1.000  I
  I12      1.0000 0.87280  0.73740  0.93710  Biso   1.000  I
  I13      1.0000 0.02230  0.84410  0.13150  Biso   1.000  I
  I14      1.0000 0.11260  0.76090  0.04840  Biso   1.000  I
  Zn7      1.0000 0.66838  0.86350  0.76855  Biso   1.000  Zn
  I15      1.0000 0.62346  0.84561  0.69263  Biso   1.000  I
  I16      1.0000 0.73033  0.77220  0.79546  Biso   1.000  I
  Zn8      1.0000 0.36789  0.09983  0.94978  Biso   1.000  Zn
  I17      1.0000 0.34213  0.07410  0.02138  Biso   1.000  I
  I18      1.0000 0.38230  0.24384  0.91713  Biso   1.000  I
  Zn9      1.0000 0.57813  0.37215  0.09215  Biso   1.000  Zn
  I19      1.0000 0.52395  0.34306  0.13660  Biso   1.000  I
  I20      1.0000 0.61705  0.26130  0.05500  Biso   1.000  I
  N13      1.0000 0.63750  0.85030  0.82120  Biso   1.000  N
  C37      1.0000 0.64810  0.79550  0.85600  Biso   1.000  C
  H25      1.0000 0.67300  0.76750  0.85960  Biso   1.000  H
  C38      1.0000 0.62440  0.77730  0.88730  Biso   1.000  C
  H26      1.0000 0.63270  0.73640  0.91130  Biso   1.000  H
  C39      1.0000 0.58888  0.81970  0.88300  Biso   1.000  C
  C40      1.0000 0.57770  0.87660  0.84590  Biso   1.000  C
  H27      1.0000 0.55290  0.90580  0.84130  Biso   1.000  H
  C41      1.0000 0.60260  0.88970  0.81670  Biso   1.000  C
  H28      1.0000 0.59470  0.92890  0.79190  Biso   1.000  H
  N14      1.0000 0.41567  0.01650  0.95261  Biso   1.000  N
  C42      1.0000 0.43178  0.96990  0.98930  Biso   1.000  C
  H29      1.0000 0.42130  0.97600  0.01610  Biso   1.000  H
  C43      1.0000 0.46349  0.91290  0.98929  Biso   1.000  C
  H30      1.0000 0.47430  0.87990  0.01560  Biso   1.000  H
  C44      1.0000 0.47890  0.90490  0.95057  Biso   1.000  C
  C45      1.0000 0.46160  0.95180  0.91230  Biso   1.000  C
  H31      1.0000 0.47120  0.94650  0.88490  Biso   1.000  H
  C46      1.0000 0.43000  0.00640  0.91520  Biso   1.000  C
  H32      1.0000 0.41800  0.03830  0.88890  Biso   1.000  H
  N15      1.0000 0.56027  0.47540  0.04634  Biso   1.000  N
  C47      1.0000 0.53234  0.53400  0.05170  Biso   1.000  C
  H33      1.0000 0.51620  0.52100  0.07320  Biso   1.000  H
  C48      1.0000 0.52585  0.61210  0.02756  Biso   1.000  C
  H34      1.0000 0.50590  0.65220  0.03270  Biso   1.000  H
  C49      1.0000 0.54874  0.63160  0.99567  Biso   1.000  C
  C50      1.0000 0.57704  0.56870  0.98852  Biso   1.000  C
  H35      1.0000 0.59280  0.57870  0.96630  Biso   1.000  H
  C51      1.0000 0.58150  0.49240  0.01422  Biso   1.000  C
  H36      1.0000 0.60040  0.44970  0.00910  Biso   1.000  H
  C52      1.0000 0.56281  0.80300  0.91593  Biso   1.000  C
  N16      1.0000 0.53404  0.86170  0.91736  Biso   1.000  N
  C53      1.0000 0.51196  0.84260  0.94813  Biso   1.000  C
  N17      1.0000 0.51609  0.77240  0.97582  Biso   1.000  N
  C54      1.0000 0.54455  0.71590  0.96961  Biso   1.000  C
  N18      1.0000 0.56917  0.72860  0.94057  Biso   1.000  N
  N19      1.0000 0.68438  0.00030  0.77569  Biso   1.000  N
  C55      1.0000 0.66400  0.05410  0.74730  Biso   1.000  C
  H37      1.0000 0.64400  0.02980  0.72470  Biso   1.000  H
  C56      1.0000 0.66980  0.14550  0.74790  Biso   1.000  C
  H38      1.0000 0.65440  0.18230  0.72570  Biso   1.000  H
  C57      1.0000 0.69794  0.18230  0.78076  Biso   1.000  C
  C58      1.0000 0.71970  0.12570  0.81070  Biso   1.000  C
  H39      1.0000 0.74010  0.14750  0.83360  Biso   1.000  H
  C59      1.0000 0.71120  0.03360  0.80690  Biso   1.000  C
  H40      1.0000 0.72590  0.99420  0.82830  Biso   1.000  H
  N20      1.0000 0.82698  0.53490  0.90126  Biso   1.000  N
  C60      1.0000 0.80380  0.58010  0.86860  Biso   1.000  C
  H41      1.0000 0.80720  0.64280  0.86700  Biso   1.000  H
  C61      1.0000 0.77522  0.54010  0.83730  Biso   1.000  C
  H42      1.0000 0.75950  0.57460  0.81440  Biso   1.000  H
  C62      1.0000 0.76951  0.44880  0.83946  Biso   1.000  C
  C63      1.0000 0.79334  0.40120  0.87319  Biso   1.000  C
  H43      1.0000 0.79020  0.33860  0.87590  Biso   1.000  H
  C64      1.0000 0.82184  0.44630  0.90290  Biso   1.000  C
  H44      1.0000 0.83860  0.41320  0.92560  Biso   1.000  H
  N21      1.0000 0.61928  0.55700  0.63789  Biso   1.000  N
  C65      1.0000 0.64752  0.59800  0.66691  Biso   1.000  C
  H45      1.0000 0.65140  0.66010  0.66310  Biso   1.000  H
  C66      1.0000 0.67150  0.55430  0.70242  Biso   1.000  C
  H46      1.0000 0.69090  0.58620  0.72280  Biso   1.000  H
  C67      1.0000 0.66649  0.46360  0.70757  Biso   1.000  C
  C68      1.0000 0.63820  0.42090  0.67670  Biso   1.000  C
  H47      1.0000 0.63460  0.35830  0.67860  Biso   1.000  H
  C69      1.0000 0.61530  0.46950  0.64290  Biso   1.000  C
  H48      1.0000 0.59570  0.43910  0.62210  Biso   1.000  H
  C70      1.0000 0.70448  0.28080  0.78056  Biso   1.000  C
  N22      1.0000 0.73306  0.31610  0.81139  Biso   1.000  N
  C71      1.0000 0.73870  0.40380  0.80609  Biso   1.000  C
  N23      1.0000 0.71865  0.45460  0.77347  Biso   1.000  N
  C72      1.0000 0.69033  0.41230  0.74503  Biso   1.000  C
  N24      1.0000 0.68135  0.32560  0.74766  Biso   1.000  N
  Zn10     1.0000 0.67770  0.86510  0.77870  Biso   1.000  Zn
  I21      1.0000 0.63340  0.83440  0.70290  Biso   1.000  I
  I22      1.0000 0.74100  0.78380  0.80850  Biso   1.000  I
  Zn11     1.0000 0.69560  0.86360  0.80180  Biso   1.000  Zn
  I23      1.0000 0.66230  0.81150  0.72570  Biso   1.000  I
  I24      1.0000 0.75970  0.80670  0.84540  Biso   1.000  I
  Zn12     1.0000 0.36070  0.08170  0.96010  Biso   1.000  Zn
  I25      1.0000 0.33370  0.02830  0.03210  Biso   1.000  I
  I26      1.0000 0.37280  0.23740  0.93710  Biso   1.000  I
  I27      1.0000 0.52230  0.34410  0.13150  Biso   1.000  I
  I28      1.0000 0.61260  0.26090  0.04840  Biso   1.000  I
  Zn13     1.0000 0.16838  0.63650  0.26855  Biso   1.000  Zn
  I29      1.0000 0.12346  0.65439  0.19263  Biso   1.000  I
  I30      1.0000 0.23033  0.72780  0.29546  Biso   1.000  I
  Zn14     1.0000 0.86789  0.40017  0.44978  Biso   1.000  Zn
  I31      1.0000 0.84213  0.42590  0.52138  Biso   1.000  I
  I32      1.0000 0.88230  0.25616  0.41713  Biso   1.000  I
  Zn15     1.0000 0.07813  0.12785  0.59215  Biso   1.000  Zn
  I33      1.0000 0.02395  0.15694  0.63660  Biso   1.000  I
  I34      1.0000 0.11705  0.23870  0.55500  Biso   1.000  I
  N25      1.0000 0.13750  0.64970  0.32120  Biso   1.000  N
  C73      1.0000 0.14810  0.70450  0.35600  Biso   1.000  C
  H49      1.0000 0.17300  0.73250  0.35960  Biso   1.000  H
  C74      1.0000 0.12440  0.72270  0.38730  Biso   1.000  C
  H50      1.0000 0.13270  0.76360  0.41130  Biso   1.000  H
  C75      1.0000 0.08888  0.68030  0.38300  Biso   1.000  C
  C76      1.0000 0.07770  0.62340  0.34590  Biso   1.000  C
  H51      1.0000 0.05290  0.59420  0.34130  Biso   1.000  H
  C77      1.0000 0.10260  0.61030  0.31670  Biso   1.000  C
  H52      1.0000 0.09470  0.57110  0.29190  Biso   1.000  H
  N26      1.0000 0.91567  0.48350  0.45261  Biso   1.000  N
  C78      1.0000 0.93178  0.53010  0.48930  Biso   1.000  C
  H53      1.0000 0.92130  0.52400  0.51610  Biso   1.000  H
  C79      1.0000 0.96349  0.58710  0.48929  Biso   1.000  C
  H54      1.0000 0.97430  0.62010  0.51560  Biso   1.000  H
  C80      1.0000 0.97890  0.59510  0.45057  Biso   1.000  C
  C81      1.0000 0.96160  0.54820  0.41230  Biso   1.000  C
  H55      1.0000 0.97120  0.55350  0.38490  Biso   1.000  H
  C82      1.0000 0.93000  0.49360  0.41520  Biso   1.000  C
  H56      1.0000 0.91800  0.46170  0.38890  Biso   1.000  H
  N27      1.0000 0.06027  0.02460  0.54634  Biso   1.000  N
  C83      1.0000 0.03234  0.96600  0.55170  Biso   1.000  C
  H57      1.0000 0.01620  0.97900  0.57320  Biso   1.000  H
  C84      1.0000 0.02585  0.88790  0.52756  Biso   1.000  C
  H58      1.0000 0.00590  0.84780  0.53270  Biso   1.000  H
  C85      1.0000 0.04874  0.86840  0.49567  Biso   1.000  C
  C86      1.0000 0.07704  0.93130  0.48852  Biso   1.000  C
  H59      1.0000 0.09280  0.92130  0.46630  Biso   1.000  H
  C87      1.0000 0.08150  0.00760  0.51422  Biso   1.000  C
  H60      1.0000 0.10040  0.05030  0.50910  Biso   1.000  H
  C88      1.0000 0.06281  0.69700  0.41593  Biso   1.000  C
  N28      1.0000 0.03404  0.63830  0.41736  Biso   1.000  N
  C89      1.0000 0.01196  0.65740  0.44813  Biso   1.000  C
  N29      1.0000 0.01609  0.72760  0.47582  Biso   1.000  N
  C90      1.0000 0.04455  0.78410  0.46961  Biso   1.000  C
  N30      1.0000 0.06917  0.77140  0.44057  Biso   1.000  N
  N31      1.0000 0.18438  0.49970  0.27569  Biso   1.000  N
  C91      1.0000 0.16400  0.44590  0.24730  Biso   1.000  C
  H61      1.0000 0.14400  0.47020  0.22470  Biso   1.000  H
  C92      1.0000 0.16980  0.35450  0.24790  Biso   1.000  C
  H62      1.0000 0.15440  0.31770  0.22570  Biso   1.000  H
  C93      1.0000 0.19794  0.31770  0.28076  Biso   1.000  C
  C94      1.0000 0.21970  0.37430  0.31070  Biso   1.000  C
  H63      1.0000 0.24010  0.35250  0.33360  Biso   1.000  H
  C95      1.0000 0.21120  0.46640  0.30690  Biso   1.000  C
  H64      1.0000 0.22590  0.50580  0.32830  Biso   1.000  H
  N32      1.0000 0.32698  0.96510  0.40126  Biso   1.000  N
  C96      1.0000 0.30380  0.91990  0.36860  Biso   1.000  C
  H65      1.0000 0.30720  0.85720  0.36700  Biso   1.000  H
  C97      1.0000 0.27522  0.95990  0.33730  Biso   1.000  C
  H66      1.0000 0.25950  0.92540  0.31440  Biso   1.000  H
  C98      1.0000 0.26951  0.05120  0.33946  Biso   1.000  C
  C99      1.0000 0.29334  0.09880  0.37319  Biso   1.000  C
  H67      1.0000 0.29020  0.16140  0.37590  Biso   1.000  H
  C100     1.0000 0.32184  0.05370  0.40290  Biso   1.000  C
  H68      1.0000 0.33860  0.08680  0.42560  Biso   1.000  H
  N33      1.0000 0.11928  0.94300  0.13789  Biso   1.000  N
  C101     1.0000 0.14752  0.90200  0.16691  Biso   1.000  C
  H69      1.0000 0.15140  0.83990  0.16310  Biso   1.000  H
  C102     1.0000 0.17150  0.94570  0.20242  Biso   1.000  C
  H70      1.0000 0.19090  0.91380  0.22280  Biso   1.000  H
  C103     1.0000 0.16649  0.03640  0.20757  Biso   1.000  C
  C104     1.0000 0.13820  0.07910  0.17670  Biso   1.000  C
  H71      1.0000 0.13460  0.14170  0.17860  Biso   1.000  H
  C105     1.0000 0.11530  0.03050  0.14290  Biso   1.000  C
  H72      1.0000 0.09570  0.06090  0.12210  Biso   1.000  H
  C106     1.0000 0.20448  0.21920  0.28056  Biso   1.000  C
  N34      1.0000 0.23306  0.18390  0.31139  Biso   1.000  N
  C107     1.0000 0.23870  0.09620  0.30609  Biso   1.000  C
  N35      1.0000 0.21865  0.04540  0.27347  Biso   1.000  N
  C108     1.0000 0.19033  0.08770  0.24503  Biso   1.000  C
  N36      1.0000 0.18135  0.17440  0.24766  Biso   1.000  N
  Zn16     1.0000 0.17770  0.63490  0.27870  Biso   1.000  Zn
  I35      1.0000 0.13340  0.66560  0.20290  Biso   1.000  I
  I36      1.0000 0.24100  0.71620  0.30850  Biso   1.000  I
  Zn17     1.0000 0.19560  0.63640  0.30180  Biso   1.000  Zn
  I37      1.0000 0.16230  0.68850  0.22570  Biso   1.000  I
  I38      1.0000 0.25970  0.69330  0.34540  Biso   1.000  I
  Zn18     1.0000 0.86070  0.41830  0.46010  Biso   1.000  Zn
  I39      1.0000 0.83370  0.47170  0.53210  Biso   1.000  I
  I40      1.0000 0.87280  0.26260  0.43710  Biso   1.000  I
  I41      1.0000 0.02230  0.15590  0.63150  Biso   1.000  I
  I42      1.0000 0.11260  0.23910  0.54840  Biso   1.000  I
  Zn19     1.0000 0.66838  0.13650  0.26855  Biso   1.000  Zn
  I43      1.0000 0.62346  0.15439  0.19263  Biso   1.000  I
  I44      1.0000 0.73033  0.22780  0.29546  Biso   1.000  I
  Zn20     1.0000 0.36789  0.90017  0.44978  Biso   1.000  Zn
  I45      1.0000 0.34213  0.92590  0.52138  Biso   1.000  I
  I46      1.0000 0.38230  0.75616  0.41713  Biso   1.000  I
  Zn21     1.0000 0.57813  0.62785  0.59215  Biso   1.000  Zn
  I47      1.0000 0.52395  0.65694  0.63660  Biso   1.000  I
  I48      1.0000 0.61705  0.73870  0.55500  Biso   1.000  I
  N37      1.0000 0.63750  0.14970  0.32120  Biso   1.000  N
  C109     1.0000 0.64810  0.20450  0.35600  Biso   1.000  C
  H73      1.0000 0.67300  0.23250  0.35960  Biso   1.000  H
  C110     1.0000 0.62440  0.22270  0.38730  Biso   1.000  C
  H74      1.0000 0.63270  0.26360  0.41130  Biso   1.000  H
  C111     1.0000 0.58888  0.18030  0.38300  Biso   1.000  C
  C112     1.0000 0.57770  0.12340  0.34590  Biso   1.000  C
  H75      1.0000 0.55290  0.09420  0.34130  Biso   1.000  H
  C113     1.0000 0.60260  0.11030  0.31670  Biso   1.000  C
  H76      1.0000 0.59470  0.07110  0.29190  Biso   1.000  H
  N38      1.0000 0.41567  0.98350  0.45261  Biso   1.000  N
  C114     1.0000 0.43178  0.03010  0.48930  Biso   1.000  C
  H77      1.0000 0.42130  0.02400  0.51610  Biso   1.000  H
  C115     1.0000 0.46349  0.08710  0.48929  Biso   1.000  C
  H78      1.0000 0.47430  0.12010  0.51560  Biso   1.000  H
  C116     1.0000 0.47890  0.09510  0.45057  Biso   1.000  C
  C117     1.0000 0.46160  0.04820  0.41230  Biso   1.000  C
  H79      1.0000 0.47120  0.05350  0.38490  Biso   1.000  H
  C118     1.0000 0.43000  0.99360  0.41520  Biso   1.000  C
  H80      1.0000 0.41800  0.96170  0.38890  Biso   1.000  H
  N39      1.0000 0.56027  0.52460  0.54634  Biso   1.000  N
  C119     1.0000 0.53234  0.46600  0.55170  Biso   1.000  C
  H81      1.0000 0.51620  0.47900  0.57320  Biso   1.000  H
  C120     1.0000 0.52585  0.38790  0.52756  Biso   1.000  C
  H82      1.0000 0.50590  0.34780  0.53270  Biso   1.000  H
  C121     1.0000 0.54874  0.36840  0.49567  Biso   1.000  C
  C122     1.0000 0.57704  0.43130  0.48852  Biso   1.000  C
  H83      1.0000 0.59280  0.42130  0.46630  Biso   1.000  H
  C123     1.0000 0.58150  0.50760  0.51422  Biso   1.000  C
  H84      1.0000 0.60040  0.55030  0.50910  Biso   1.000  H
  C124     1.0000 0.56281  0.19700  0.41593  Biso   1.000  C
  N40      1.0000 0.53404  0.13830  0.41736  Biso   1.000  N
  C125     1.0000 0.51196  0.15740  0.44813  Biso   1.000  C
  N41      1.0000 0.51609  0.22760  0.47582  Biso   1.000  N
  C126     1.0000 0.54455  0.28410  0.46961  Biso   1.000  C
  N42      1.0000 0.56917  0.27140  0.44057  Biso   1.000  N
  N43      1.0000 0.68438  0.99970  0.27569  Biso   1.000  N
  C127     1.0000 0.66400  0.94590  0.24730  Biso   1.000  C
  H85      1.0000 0.64400  0.97020  0.22470  Biso   1.000  H
  C128     1.0000 0.66980  0.85450  0.24790  Biso   1.000  C
  H86      1.0000 0.65440  0.81770  0.22570  Biso   1.000  H
  C129     1.0000 0.69794  0.81770  0.28076  Biso   1.000  C
  C130     1.0000 0.71970  0.87430  0.31070  Biso   1.000  C
  H87      1.0000 0.74010  0.85250  0.33360  Biso   1.000  H
  C131     1.0000 0.71120  0.96640  0.30690  Biso   1.000  C
  H88      1.0000 0.72590  0.00580  0.32830  Biso   1.000  H
  N44      1.0000 0.82698  0.46510  0.40126  Biso   1.000  N
  C132     1.0000 0.80380  0.41990  0.36860  Biso   1.000  C
  H89      1.0000 0.80720  0.35720  0.36700  Biso   1.000  H
  C133     1.0000 0.77522  0.45990  0.33730  Biso   1.000  C
  H90      1.0000 0.75950  0.42540  0.31440  Biso   1.000  H
  C134     1.0000 0.76951  0.55120  0.33946  Biso   1.000  C
  C135     1.0000 0.79334  0.59880  0.37319  Biso   1.000  C
  H91      1.0000 0.79020  0.66140  0.37590  Biso   1.000  H
  C136     1.0000 0.82184  0.55370  0.40290  Biso   1.000  C
  H92      1.0000 0.83860  0.58680  0.42560  Biso   1.000  H
  N45      1.0000 0.61928  0.44300  0.13789  Biso   1.000  N
  C137     1.0000 0.64752  0.40200  0.16691  Biso   1.000  C
  H93      1.0000 0.65140  0.33990  0.16310  Biso   1.000  H
  C138     1.0000 0.67150  0.44570  0.20242  Biso   1.000  C
  H94      1.0000 0.69090  0.41380  0.22280  Biso   1.000  H
  C139     1.0000 0.66649  0.53640  0.20757  Biso   1.000  C
  C140     1.0000 0.63820  0.57910  0.17670  Biso   1.000  C
  H95      1.0000 0.63460  0.64170  0.17860  Biso   1.000  H
  C141     1.0000 0.61530  0.53050  0.14290  Biso   1.000  C
  H96      1.0000 0.59570  0.56090  0.12210  Biso   1.000  H
  C142     1.0000 0.70448  0.71920  0.28056  Biso   1.000  C
  N46      1.0000 0.73306  0.68390  0.31139  Biso   1.000  N
  C143     1.0000 0.73870  0.59620  0.30609  Biso   1.000  C
  N47      1.0000 0.71865  0.54540  0.27347  Biso   1.000  N
  C144     1.0000 0.69033  0.58770  0.24503  Biso   1.000  C
  N48      1.0000 0.68135  0.67440  0.24766  Biso   1.000  N
  Zn22     1.0000 0.67770  0.13490  0.27870  Biso   1.000  Zn
  I49      1.0000 0.63340  0.16560  0.20290  Biso   1.000  I
  I50      1.0000 0.74100  0.21620  0.30850  Biso   1.000  I
  Zn23     1.0000 0.69560  0.13640  0.30180  Biso   1.000  Zn
  I51      1.0000 0.66230  0.18850  0.22570  Biso   1.000  I
  I52      1.0000 0.75970  0.19330  0.34540  Biso   1.000  I
  Zn24     1.0000 0.36070  0.91830  0.46010  Biso   1.000  Zn
  I53      1.0000 0.33370  0.97170  0.53210  Biso   1.000  I
  I54      1.0000 0.37280  0.76260  0.43710  Biso   1.000  I
  I55      1.0000 0.52230  0.65590  0.63150  Biso   1.000  I
  I56      1.0000 0.61260  0.73910  0.54840  Biso   1.000  I
  Zn25     1.0000 0.83162  0.36350  0.73145  Biso   1.000  Zn
  I57      1.0000 0.87654  0.34561  0.80737  Biso   1.000  I
  I58      1.0000 0.76967  0.27220  0.70454  Biso   1.000  I
  Zn26     1.0000 0.13211  0.59983  0.55022  Biso   1.000  Zn
  I59      1.0000 0.15787  0.57410  0.47862  Biso   1.000  I
  I60      1.0000 0.11770  0.74384  0.58287  Biso   1.000  I
  Zn27     1.0000 0.92187  0.87215  0.40785  Biso   1.000  Zn
  I61      1.0000 0.97605  0.84306  0.36340  Biso   1.000  I
  I62      1.0000 0.88295  0.76130  0.44500  Biso   1.000  I
  N49      1.0000 0.86250  0.35030  0.67880  Biso   1.000  N
  C145     1.0000 0.85190  0.29550  0.64400  Biso   1.000  C
  H97      1.0000 0.82700  0.26750  0.64040  Biso   1.000  H
  C146     1.0000 0.87560  0.27730  0.61270  Biso   1.000  C
  H98      1.0000 0.86730  0.23640  0.58870  Biso   1.000  H
  C147     1.0000 0.91112  0.31970  0.61700  Biso   1.000  C
  C148     1.0000 0.92230  0.37660  0.65410  Biso   1.000  C
  H99      1.0000 0.94710  0.40580  0.65870  Biso   1.000  H
  C149     1.0000 0.89740  0.38970  0.68330  Biso   1.000  C
  H100     1.0000 0.90530  0.42890  0.70810  Biso   1.000  H
  N50      1.0000 0.08433  0.51650  0.54739  Biso   1.000  N
  C150     1.0000 0.06822  0.46990  0.51070  Biso   1.000  C
  H101     1.0000 0.07870  0.47600  0.48390  Biso   1.000  H
  C151     1.0000 0.03651  0.41290  0.51071  Biso   1.000  C
  H102     1.0000 0.02570  0.37990  0.48440  Biso   1.000  H
  C152     1.0000 0.02110  0.40490  0.54943  Biso   1.000  C
  C153     1.0000 0.03840  0.45180  0.58770  Biso   1.000  C
  H103     1.0000 0.02880  0.44650  0.61510  Biso   1.000  H
  C154     1.0000 0.07000  0.50640  0.58480  Biso   1.000  C
  H104     1.0000 0.08200  0.53830  0.61110  Biso   1.000  H
  N51      1.0000 0.93973  0.97540  0.45366  Biso   1.000  N
  C155     1.0000 0.96766  0.03400  0.44830  Biso   1.000  C
  H105     1.0000 0.98380  0.02100  0.42680  Biso   1.000  H
  C156     1.0000 0.97415  0.11210  0.47244  Biso   1.000  C
  H106     1.0000 0.99410  0.15220  0.46730  Biso   1.000  H
  C157     1.0000 0.95126  0.13160  0.50433  Biso   1.000  C
  C158     1.0000 0.92296  0.06870  0.51148  Biso   1.000  C
  H107     1.0000 0.90720  0.07870  0.53370  Biso   1.000  H
  C159     1.0000 0.91850  0.99240  0.48578  Biso   1.000  C
  H108     1.0000 0.89960  0.94970  0.49090  Biso   1.000  H
  C160     1.0000 0.93719  0.30300  0.58407  Biso   1.000  C
  N52      1.0000 0.96596  0.36170  0.58264  Biso   1.000  N
  C161     1.0000 0.98804  0.34260  0.55187  Biso   1.000  C
  N53      1.0000 0.98391  0.27240  0.52418  Biso   1.000  N
  C162     1.0000 0.95545  0.21590  0.53039  Biso   1.000  C
  N54      1.0000 0.93083  0.22860  0.55943  Biso   1.000  N
  N55      1.0000 0.81562  0.50030  0.72431  Biso   1.000  N
  C163     1.0000 0.83600  0.55410  0.75270  Biso   1.000  C
  H109     1.0000 0.85600  0.52980  0.77530  Biso   1.000  H
  C164     1.0000 0.83020  0.64550  0.75210  Biso   1.000  C
  H110     1.0000 0.84560  0.68230  0.77430  Biso   1.000  H
  C165     1.0000 0.80206  0.68230  0.71924  Biso   1.000  C
  C166     1.0000 0.78030  0.62570  0.68930  Biso   1.000  C
  H111     1.0000 0.75990  0.64750  0.66640  Biso   1.000  H
  C167     1.0000 0.78880  0.53360  0.69310  Biso   1.000  C
  H112     1.0000 0.77410  0.49420  0.67170  Biso   1.000  H
  N56      1.0000 0.67302  0.03490  0.59874  Biso   1.000  N
  C168     1.0000 0.69620  0.08010  0.63140  Biso   1.000  C
  H113     1.0000 0.69280  0.14280  0.63300  Biso   1.000  H
  C169     1.0000 0.72478  0.04010  0.66270  Biso   1.000  C
  H114     1.0000 0.74050  0.07460  0.68560  Biso   1.000  H
  C170     1.0000 0.73049  0.94880  0.66054  Biso   1.000  C
  C171     1.0000 0.70666  0.90120  0.62681  Biso   1.000  C
  H115     1.0000 0.70980  0.83860  0.62410  Biso   1.000  H
  C172     1.0000 0.67816  0.94630  0.59710  Biso   1.000  C
  H116     1.0000 0.66140  0.91320  0.57440  Biso   1.000  H
  N57      1.0000 0.88072  0.05700  0.86211  Biso   1.000  N
  C173     1.0000 0.85248  0.09800  0.83309  Biso   1.000  C
  H117     1.0000 0.84860  0.16010  0.83690  Biso   1.000  H
  C174     1.0000 0.82850  0.05430  0.79758  Biso   1.000  C
  H118     1.0000 0.80910  0.08620  0.77720  Biso   1.000  H
  C175     1.0000 0.83351  0.96360  0.79243  Biso   1.000  C
  C176     1.0000 0.86180  0.92090  0.82330  Biso   1.000  C
  H119     1.0000 0.86540  0.85830  0.82140  Biso   1.000  H
  C177     1.0000 0.88470  0.96950  0.85710  Biso   1.000  C
  H120     1.0000 0.90430  0.93910  0.87790  Biso   1.000  H
  C178     1.0000 0.79552  0.78080  0.71944  Biso   1.000  C
  N58      1.0000 0.76694  0.81610  0.68861  Biso   1.000  N
  C179     1.0000 0.76130  0.90380  0.69391  Biso   1.000  C
  N59      1.0000 0.78135  0.95460  0.72653  Biso   1.000  N
  C180     1.0000 0.80967  0.91230  0.75497  Biso   1.000  C
  N60      1.0000 0.81865  0.82560  0.75234  Biso   1.000  N
  Zn28     1.0000 0.82230  0.36510  0.72130  Biso   1.000  Zn
  I63      1.0000 0.86660  0.33440  0.79710  Biso   1.000  I
  I64      1.0000 0.75900  0.28380  0.69150  Biso   1.000  I
  Zn29     1.0000 0.80440  0.36360  0.69820  Biso   1.000  Zn
  I65      1.0000 0.83770  0.31150  0.77430  Biso   1.000  I
  I66      1.0000 0.74030  0.30670  0.65460  Biso   1.000  I
  Zn30     1.0000 0.13930  0.58170  0.53990  Biso   1.000  Zn
  I67      1.0000 0.16630  0.52830  0.46790  Biso   1.000  I
  I68      1.0000 0.12720  0.73740  0.56290  Biso   1.000  I
  I69      1.0000 0.97770  0.84410  0.36850  Biso   1.000  I
  I70      1.0000 0.88740  0.76090  0.45160  Biso   1.000  I
  Zn31     1.0000 0.33162  0.86350  0.73145  Biso   1.000  Zn
  I71      1.0000 0.37654  0.84561  0.80737  Biso   1.000  I
  I72      1.0000 0.26967  0.77220  0.70454  Biso   1.000  I
  Zn32     1.0000 0.63211  0.09983  0.55022  Biso   1.000  Zn
  I73      1.0000 0.65787  0.07410  0.47862  Biso   1.000  I
  I74      1.0000 0.61770  0.24384  0.58287  Biso   1.000  I
  Zn33     1.0000 0.42187  0.37215  0.40785  Biso   1.000  Zn
  I75      1.0000 0.47605  0.34306  0.36340  Biso   1.000  I
  I76      1.0000 0.38295  0.26130  0.44500  Biso   1.000  I
  N61      1.0000 0.36250  0.85030  0.67880  Biso   1.000  N
  C181     1.0000 0.35190  0.79550  0.64400  Biso   1.000  C
  H121     1.0000 0.32700  0.76750  0.64040  Biso   1.000  H
  C182     1.0000 0.37560  0.77730  0.61270  Biso   1.000  C
  H122     1.0000 0.36730  0.73640  0.58870  Biso   1.000  H
  C183     1.0000 0.41112  0.81970  0.61700  Biso   1.000  C
  C184     1.0000 0.42230  0.87660  0.65410  Biso   1.000  C
  H123     1.0000 0.44710  0.90580  0.65870  Biso   1.000  H
  C185     1.0000 0.39740  0.88970  0.68330  Biso   1.000  C
  H124     1.0000 0.40530  0.92890  0.70810  Biso   1.000  H
  N62      1.0000 0.58433  0.01650  0.54739  Biso   1.000  N
  C186     1.0000 0.56822  0.96990  0.51070  Biso   1.000  C
  H125     1.0000 0.57870  0.97600  0.48390  Biso   1.000  H
  C187     1.0000 0.53651  0.91290  0.51071  Biso   1.000  C
  H126     1.0000 0.52570  0.87990  0.48440  Biso   1.000  H
  C188     1.0000 0.52110  0.90490  0.54943  Biso   1.000  C
  C189     1.0000 0.53840  0.95180  0.58770  Biso   1.000  C
  H127     1.0000 0.52880  0.94650  0.61510  Biso   1.000  H
  C190     1.0000 0.57000  0.00640  0.58480  Biso   1.000  C
  H128     1.0000 0.58200  0.03830  0.61110  Biso   1.000  H
  N63      1.0000 0.43973  0.47540  0.45366  Biso   1.000  N
  C191     1.0000 0.46766  0.53400  0.44830  Biso   1.000  C
  H129     1.0000 0.48380  0.52100  0.42680  Biso   1.000  H
  C192     1.0000 0.47415  0.61210  0.47244  Biso   1.000  C
  H130     1.0000 0.49410  0.65220  0.46730  Biso   1.000  H
  C193     1.0000 0.45126  0.63160  0.50433  Biso   1.000  C
  C194     1.0000 0.42296  0.56870  0.51148  Biso   1.000  C
  H131     1.0000 0.40720  0.57870  0.53370  Biso   1.000  H
  C195     1.0000 0.41850  0.49240  0.48578  Biso   1.000  C
  H132     1.0000 0.39960  0.44970  0.49090  Biso   1.000  H
  C196     1.0000 0.43719  0.80300  0.58407  Biso   1.000  C
  N64      1.0000 0.46596  0.86170  0.58264  Biso   1.000  N
  C197     1.0000 0.48804  0.84260  0.55187  Biso   1.000  C
  N65      1.0000 0.48391  0.77240  0.52418  Biso   1.000  N
  C198     1.0000 0.45545  0.71590  0.53039  Biso   1.000  C
  N66      1.0000 0.43083  0.72860  0.55943  Biso   1.000  N
  N67      1.0000 0.31562  0.00030  0.72431  Biso   1.000  N
  C199     1.0000 0.33600  0.05410  0.75270  Biso   1.000  C
  H133     1.0000 0.35600  0.02980  0.77530  Biso   1.000  H
  C200     1.0000 0.33020  0.14550  0.75210  Biso   1.000  C
  H134     1.0000 0.34560  0.18230  0.77430  Biso   1.000  H
  C201     1.0000 0.30206  0.18230  0.71924  Biso   1.000  C
  C202     1.0000 0.28030  0.12570  0.68930  Biso   1.000  C
  H135     1.0000 0.25990  0.14750  0.66640  Biso   1.000  H
  C203     1.0000 0.28880  0.03360  0.69310  Biso   1.000  C
  H136     1.0000 0.27410  0.99420  0.67170  Biso   1.000  H
  N68      1.0000 0.17302  0.53490  0.59874  Biso   1.000  N
  C204     1.0000 0.19620  0.58010  0.63140  Biso   1.000  C
  H137     1.0000 0.19280  0.64280  0.63300  Biso   1.000  H
  C205     1.0000 0.22478  0.54010  0.66270  Biso   1.000  C
  H138     1.0000 0.24050  0.57460  0.68560  Biso   1.000  H
  C206     1.0000 0.23049  0.44880  0.66054  Biso   1.000  C
  C207     1.0000 0.20666  0.40120  0.62681  Biso   1.000  C
  H139     1.0000 0.20980  0.33860  0.62410  Biso   1.000  H
  C208     1.0000 0.17816  0.44630  0.59710  Biso   1.000  C
  H140     1.0000 0.16140  0.41320  0.57440  Biso   1.000  H
  N69      1.0000 0.38072  0.55700  0.86211  Biso   1.000  N
  C209     1.0000 0.35248  0.59800  0.83309  Biso   1.000  C
  H141     1.0000 0.34860  0.66010  0.83690  Biso   1.000  H
  C210     1.0000 0.32850  0.55430  0.79758  Biso   1.000  C
  H142     1.0000 0.30910  0.58620  0.77720  Biso   1.000  H
  C211     1.0000 0.33351  0.46360  0.79243  Biso   1.000  C
  C212     1.0000 0.36180  0.42090  0.82330  Biso   1.000  C
  H143     1.0000 0.36540  0.35830  0.82140  Biso   1.000  H
  C213     1.0000 0.38470  0.46950  0.85710  Biso   1.000  C
  H144     1.0000 0.40430  0.43910  0.87790  Biso   1.000  H
  C214     1.0000 0.29552  0.28080  0.71944  Biso   1.000  C
  N70      1.0000 0.26694  0.31610  0.68861  Biso   1.000  N
  C215     1.0000 0.26130  0.40380  0.69391  Biso   1.000  C
  N71      1.0000 0.28135  0.45460  0.72653  Biso   1.000  N
  C216     1.0000 0.30967  0.41230  0.75497  Biso   1.000  C
  N72      1.0000 0.31865  0.32560  0.75234  Biso   1.000  N
  Zn34     1.0000 0.32230  0.86510  0.72130  Biso   1.000  Zn
  I77      1.0000 0.36660  0.83440  0.79710  Biso   1.000  I
  I78      1.0000 0.25900  0.78380  0.69150  Biso   1.000  I
  Zn35     1.0000 0.30440  0.86360  0.69820  Biso   1.000  Zn
  I79      1.0000 0.33770  0.81150  0.77430  Biso   1.000  I
  I80      1.0000 0.24030  0.80670  0.65460  Biso   1.000  I
  Zn36     1.0000 0.63930  0.08170  0.53990  Biso   1.000  Zn
  I81      1.0000 0.66630  0.02830  0.46790  Biso   1.000  I
  I82      1.0000 0.62720  0.23740  0.56290  Biso   1.000  I
  I83      1.0000 0.47770  0.34410  0.36850  Biso   1.000  I
  I84      1.0000 0.38740  0.26090  0.45160  Biso   1.000  I
  Zn37     1.0000 0.83162  0.63650  0.23145  Biso   1.000  Zn
  I85      1.0000 0.87654  0.65439  0.30737  Biso   1.000  I
  I86      1.0000 0.76967  0.72780  0.20454  Biso   1.000  I
  Zn38     1.0000 0.13211  0.40017  0.05022  Biso   1.000  Zn
  I87      1.0000 0.15787  0.42590  0.97862  Biso   1.000  I
  I88      1.0000 0.11770  0.25616  0.08287  Biso   1.000  I
  Zn39     1.0000 0.92187  0.12785  0.90785  Biso   1.000  Zn
  I89      1.0000 0.97605  0.15694  0.86340  Biso   1.000  I
  I90      1.0000 0.88295  0.23870  0.94500  Biso   1.000  I
  N73      1.0000 0.86250  0.64970  0.17880  Biso   1.000  N
  C217     1.0000 0.85190  0.70450  0.14400  Biso   1.000  C
  H145     1.0000 0.82700  0.73250  0.14040  Biso   1.000  H
  C218     1.0000 0.87560  0.72270  0.11270  Biso   1.000  C
  H146     1.0000 0.86730  0.76360  0.08870  Biso   1.000  H
  C219     1.0000 0.91112  0.68030  0.11700  Biso   1.000  C
  C220     1.0000 0.92230  0.62340  0.15410  Biso   1.000  C
  H147     1.0000 0.94710  0.59420  0.15870  Biso   1.000  H
  C221     1.0000 0.89740  0.61030  0.18330  Biso   1.000  C
  H148     1.0000 0.90530  0.57110  0.20810  Biso   1.000  H
  N74      1.0000 0.08433  0.48350  0.04739  Biso   1.000  N
  C222     1.0000 0.06822  0.53010  0.01070  Biso   1.000  C
  H149     1.0000 0.07870  0.52400  0.98390  Biso   1.000  H
  C223     1.0000 0.03651  0.58710  0.01071  Biso   1.000  C
  H150     1.0000 0.02570  0.62010  0.98440  Biso   1.000  H
  C224     1.0000 0.02110  0.59510  0.04943  Biso   1.000  C
  C225     1.0000 0.03840  0.54820  0.08770  Biso   1.000  C
  H151     1.0000 0.02880  0.55350  0.11510  Biso   1.000  H
  C226     1.0000 0.07000  0.49360  0.08480  Biso   1.000  C
  H152     1.0000 0.08200  0.46170  0.11110  Biso   1.000  H
  N75      1.0000 0.93973  0.02460  0.95366  Biso   1.000  N
  C227     1.0000 0.96766  0.96600  0.94830  Biso   1.000  C
  H153     1.0000 0.98380  0.97900  0.92680  Biso   1.000  H
  C228     1.0000 0.97415  0.88790  0.97244  Biso   1.000  C
  H154     1.0000 0.99410  0.84780  0.96730  Biso   1.000  H
  C229     1.0000 0.95126  0.86840  0.00433  Biso   1.000  C
  C230     1.0000 0.92296  0.93130  0.01148  Biso   1.000  C
  H155     1.0000 0.90720  0.92130  0.03370  Biso   1.000  H
  C231     1.0000 0.91850  0.00760  0.98578  Biso   1.000  C
  H156     1.0000 0.89960  0.05030  0.99090  Biso   1.000  H
  C232     1.0000 0.93719  0.69700  0.08407  Biso   1.000  C
  N76      1.0000 0.96596  0.63830  0.08264  Biso   1.000  N
  C233     1.0000 0.98804  0.65740  0.05187  Biso   1.000  C
  N77      1.0000 0.98391  0.72760  0.02418  Biso   1.000  N
  C234     1.0000 0.95545  0.78410  0.03039  Biso   1.000  C
  N78      1.0000 0.93083  0.77140  0.05943  Biso   1.000  N
  N79      1.0000 0.81562  0.49970  0.22431  Biso   1.000  N
  C235     1.0000 0.83600  0.44590  0.25270  Biso   1.000  C
  H157     1.0000 0.85600  0.47020  0.27530  Biso   1.000  H
  C236     1.0000 0.83020  0.35450  0.25210  Biso   1.000  C
  H158     1.0000 0.84560  0.31770  0.27430  Biso   1.000  H
  C237     1.0000 0.80206  0.31770  0.21924  Biso   1.000  C
  C238     1.0000 0.78030  0.37430  0.18930  Biso   1.000  C
  H159     1.0000 0.75990  0.35250  0.16640  Biso   1.000  H
  C239     1.0000 0.78880  0.46640  0.19310  Biso   1.000  C
  H160     1.0000 0.77410  0.50580  0.17170  Biso   1.000  H
  N80      1.0000 0.67302  0.96510  0.09874  Biso   1.000  N
  C240     1.0000 0.69620  0.91990  0.13140  Biso   1.000  C
  H161     1.0000 0.69280  0.85720  0.13300  Biso   1.000  H
  C241     1.0000 0.72478  0.95990  0.16270  Biso   1.000  C
  H162     1.0000 0.74050  0.92540  0.18560  Biso   1.000  H
  C242     1.0000 0.73049  0.05120  0.16054  Biso   1.000  C
  C243     1.0000 0.70666  0.09880  0.12681  Biso   1.000  C
  H163     1.0000 0.70980  0.16140  0.12410  Biso   1.000  H
  C244     1.0000 0.67816  0.05370  0.09710  Biso   1.000  C
  H164     1.0000 0.66140  0.08680  0.07440  Biso   1.000  H
  N81      1.0000 0.88072  0.94300  0.36211  Biso   1.000  N
  C245     1.0000 0.85248  0.90200  0.33309  Biso   1.000  C
  H165     1.0000 0.84860  0.83990  0.33690  Biso   1.000  H
  C246     1.0000 0.82850  0.94570  0.29758  Biso   1.000  C
  H166     1.0000 0.80910  0.91380  0.27720  Biso   1.000  H
  C247     1.0000 0.83351  0.03640  0.29243  Biso   1.000  C
  C248     1.0000 0.86180  0.07910  0.32330  Biso   1.000  C
  H167     1.0000 0.86540  0.14170  0.32140  Biso   1.000  H
  C249     1.0000 0.88470  0.03050  0.35710  Biso   1.000  C
  H168     1.0000 0.90430  0.06090  0.37790  Biso   1.000  H
  C250     1.0000 0.79552  0.21920  0.21944  Biso   1.000  C
  N82      1.0000 0.76694  0.18390  0.18861  Biso   1.000  N
  C251     1.0000 0.76130  0.09620  0.19391  Biso   1.000  C
  N83      1.0000 0.78135  0.04540  0.22653  Biso   1.000  N
  C252     1.0000 0.80967  0.08770  0.25497  Biso   1.000  C
  N84      1.0000 0.81865  0.17440  0.25234  Biso   1.000  N
  Zn40     1.0000 0.82230  0.63490  0.22130  Biso   1.000  Zn
  I91      1.0000 0.86660  0.66560  0.29710  Biso   1.000  I
  I92      1.0000 0.75900  0.71620  0.19150  Biso   1.000  I
  Zn41     1.0000 0.80440  0.63640  0.19820  Biso   1.000  Zn
  I93      1.0000 0.83770  0.68850  0.27430  Biso   1.000  I
  I94      1.0000 0.74030  0.69330  0.15460  Biso   1.000  I
  Zn42     1.0000 0.13930  0.41830  0.03990  Biso   1.000  Zn
  I95      1.0000 0.16630  0.47170  0.96790  Biso   1.000  I
  I96      1.0000 0.12720  0.26260  0.06290  Biso   1.000  I
  I97      1.0000 0.97770  0.15590  0.86850  Biso   1.000  I
  I98      1.0000 0.88740  0.23910  0.95160  Biso   1.000  I
  Zn43     1.0000 0.33162  0.13650  0.23145  Biso   1.000  Zn
  I99      1.0000 0.37654  0.15439  0.30737  Biso   1.000  I
  I100     1.0000 0.26967  0.22780  0.20454  Biso   1.000  I
  Zn44     1.0000 0.63211  0.90017  0.05022  Biso   1.000  Zn
  I101     1.0000 0.65787  0.92590  0.97862  Biso   1.000  I
  I102     1.0000 0.61770  0.75616  0.08287  Biso   1.000  I
  Zn45     1.0000 0.42187  0.62785  0.90785  Biso   1.000  Zn
  I103     1.0000 0.47605  0.65694  0.86340  Biso   1.000  I
  I104     1.0000 0.38295  0.73870  0.94500  Biso   1.000  I
  N85      1.0000 0.36250  0.14970  0.17880  Biso   1.000  N
  C253     1.0000 0.35190  0.20450  0.14400  Biso   1.000  C
  H169     1.0000 0.32700  0.23250  0.14040  Biso   1.000  H
  C254     1.0000 0.37560  0.22270  0.11270  Biso   1.000  C
  H170     1.0000 0.36730  0.26360  0.08870  Biso   1.000  H
  C255     1.0000 0.41112  0.18030  0.11700  Biso   1.000  C
  C256     1.0000 0.42230  0.12340  0.15410  Biso   1.000  C
  H171     1.0000 0.44710  0.09420  0.15870  Biso   1.000  H
  C257     1.0000 0.39740  0.11030  0.18330  Biso   1.000  C
  H172     1.0000 0.40530  0.07110  0.20810  Biso   1.000  H
  N86      1.0000 0.58433  0.98350  0.04739  Biso   1.000  N
  C258     1.0000 0.56822  0.03010  0.01070  Biso   1.000  C
  H173     1.0000 0.57870  0.02400  0.98390  Biso   1.000  H
  C259     1.0000 0.53651  0.08710  0.01071  Biso   1.000  C
  H174     1.0000 0.52570  0.12010  0.98440  Biso   1.000  H
  C260     1.0000 0.52110  0.09510  0.04943  Biso   1.000  C
  C261     1.0000 0.53840  0.04820  0.08770  Biso   1.000  C
  H175     1.0000 0.52880  0.05350  0.11510  Biso   1.000  H
  C262     1.0000 0.57000  0.99360  0.08480  Biso   1.000  C
  H176     1.0000 0.58200  0.96170  0.11110  Biso   1.000  H
  N87      1.0000 0.43973  0.52460  0.95366  Biso   1.000  N
  C263     1.0000 0.46766  0.46600  0.94830  Biso   1.000  C
  H177     1.0000 0.48380  0.47900  0.92680  Biso   1.000  H
  C264     1.0000 0.47415  0.38790  0.97244  Biso   1.000  C
  H178     1.0000 0.49410  0.34780  0.96730  Biso   1.000  H
  C265     1.0000 0.45126  0.36840  0.00433  Biso   1.000  C
  C266     1.0000 0.42296  0.43130  0.01148  Biso   1.000  C
  H179     1.0000 0.40720  0.42130  0.03370  Biso   1.000  H
  C267     1.0000 0.41850  0.50760  0.98578  Biso   1.000  C
  H180     1.0000 0.39960  0.55030  0.99090  Biso   1.000  H
  C268     1.0000 0.43719  0.19700  0.08407  Biso   1.000  C
  N88      1.0000 0.46596  0.13830  0.08264  Biso   1.000  N
  C269     1.0000 0.48804  0.15740  0.05187  Biso   1.000  C
  N89      1.0000 0.48391  0.22760  0.02418  Biso   1.000  N
  C270     1.0000 0.45545  0.28410  0.03039  Biso   1.000  C
  N90      1.0000 0.43083  0.27140  0.05943  Biso   1.000  N
  N91      1.0000 0.31562  0.99970  0.22431  Biso   1.000  N
  C271     1.0000 0.33600  0.94590  0.25270  Biso   1.000  C
  H181     1.0000 0.35600  0.97020  0.27530  Biso   1.000  H
  C272     1.0000 0.33020  0.85450  0.25210  Biso   1.000  C
  H182     1.0000 0.34560  0.81770  0.27430  Biso   1.000  H
  C273     1.0000 0.30206  0.81770  0.21924  Biso   1.000  C
  C274     1.0000 0.28030  0.87430  0.18930  Biso   1.000  C
  H183     1.0000 0.25990  0.85250  0.16640  Biso   1.000  H
  C275     1.0000 0.28880  0.96640  0.19310  Biso   1.000  C
  H184     1.0000 0.27410  0.00580  0.17170  Biso   1.000  H
  N92      1.0000 0.17302  0.46510  0.09874  Biso   1.000  N
  C276     1.0000 0.19620  0.41990  0.13140  Biso   1.000  C
  H185     1.0000 0.19280  0.35720  0.13300  Biso   1.000  H
  C277     1.0000 0.22478  0.45990  0.16270  Biso   1.000  C
  H186     1.0000 0.24050  0.42540  0.18560  Biso   1.000  H
  C278     1.0000 0.23049  0.55120  0.16054  Biso   1.000  C
  C279     1.0000 0.20666  0.59880  0.12681  Biso   1.000  C
  H187     1.0000 0.20980  0.66140  0.12410  Biso   1.000  H
  C280     1.0000 0.17816  0.55370  0.09710  Biso   1.000  C
  H188     1.0000 0.16140  0.58680  0.07440  Biso   1.000  H
  N93      1.0000 0.38072  0.44300  0.36211  Biso   1.000  N
  C281     1.0000 0.35248  0.40200  0.33309  Biso   1.000  C
  H189     1.0000 0.34860  0.33990  0.33690  Biso   1.000  H
  C282     1.0000 0.32850  0.44570  0.29758  Biso   1.000  C
  H190     1.0000 0.30910  0.41380  0.27720  Biso   1.000  H
  C283     1.0000 0.33351  0.53640  0.29243  Biso   1.000  C
  C284     1.0000 0.36180  0.57910  0.32330  Biso   1.000  C
  H191     1.0000 0.36540  0.64170  0.32140  Biso   1.000  H
  C285     1.0000 0.38470  0.53050  0.35710  Biso   1.000  C
  H192     1.0000 0.40430  0.56090  0.37790  Biso   1.000  H
  C286     1.0000 0.29552  0.71920  0.21944  Biso   1.000  C
  N94      1.0000 0.26694  0.68390  0.18861  Biso   1.000  N
  C287     1.0000 0.26130  0.59620  0.19391  Biso   1.000  C
  N95      1.0000 0.28135  0.54540  0.22653  Biso   1.000  N
  C288     1.0000 0.30967  0.58770  0.25497  Biso   1.000  C
  N96      1.0000 0.31865  0.67440  0.25234  Biso   1.000  N
  Zn46     1.0000 0.32230  0.13490  0.22130  Biso   1.000  Zn
  I105     1.0000 0.36660  0.16560  0.29710  Biso   1.000  I
  I106     1.0000 0.25900  0.21620  0.19150  Biso   1.000  I
  Zn47     1.0000 0.30440  0.13640  0.19820  Biso   1.000  Zn
  I107     1.0000 0.33770  0.18850  0.27430  Biso   1.000  I
  I108     1.0000 0.24030  0.19330  0.15460  Biso   1.000  I
  Zn48     1.0000 0.63930  0.91830  0.03990  Biso   1.000  Zn
  I109     1.0000 0.66630  0.97170  0.96790  Biso   1.000  I
  I110     1.0000 0.62720  0.76260  0.06290  Biso   1.000  I
  I111     1.0000 0.47770  0.65590  0.86850  Biso   1.000  I
  I112     1.0000 0.38740  0.73910  0.95160  Biso   1.000  I
