data_image0
_cell_length_a       34.7408
_cell_length_b       14.9018
_cell_length_c       31.0584
_cell_angle_alpha    90
_cell_angle_beta     101.437
_cell_angle_gamma    90

_symmetry_space_group_name_H-M    "P 1"
_symmetry_int_tables_number       1

loop_
  _symmetry_equiv_pos_as_xyz
  'x, y, z'

loop_
  _atom_site_label
  _atom_site_occupancy
  _atom_site_fract_x
  _atom_site_fract_y
  _atom_site_fract_z
  _atom_site_thermal_displace_type
  _atom_site_B_iso_or_equiv
  _atom_site_type_symbol
  N1       1.0000 0.81437  0.00270  0.72248  Biso   1.000  N
  C1       1.0000 0.78460  0.96860  0.69440  Biso   1.000  C
  H1       1.0000 0.76730  0.00790  0.67580  Biso   1.000  H
  C2       1.0000 0.77784  0.87660  0.69110  Biso   1.000  C
  H2       1.0000 0.75640  0.85390  0.67010  Biso   1.000  H
  C3       1.0000 0.80193  0.81900  0.71797  Biso   1.000  C
  C4       1.0000 0.83350  0.85620  0.74770  Biso   1.000  C
  H3       1.0000 0.85110  0.81870  0.76700  Biso   1.000  H
  C5       1.0000 0.83860  0.94830  0.74840  Biso   1.000  C
  H4       1.0000 0.86030  0.97330  0.76830  Biso   1.000  H
  N2       1.0000 0.66907  0.46580  0.60560  Biso   1.000  N
  C6       1.0000 0.67669  0.55210  0.60017  Biso   1.000  C
  H5       1.0000 0.66140  0.58340  0.57610  Biso   1.000  H
  C7       1.0000 0.70609  0.59840  0.62824  Biso   1.000  C
  H6       1.0000 0.71070  0.66010  0.62350  Biso   1.000  H
  C8       1.0000 0.72848  0.55290  0.66316  Biso   1.000  C
  C9       1.0000 0.72030  0.46270  0.66860  Biso   1.000  C
  H7       1.0000 0.73510  0.42960  0.69230  Biso   1.000  H
  C10      1.0000 0.69084  0.42220  0.63964  Biso   1.000  C
  H8       1.0000 0.68550  0.36060  0.64380  Biso   1.000  H
  N3       1.0000 0.87956  0.44460  0.85882  Biso   1.000  N
  C11      1.0000 0.88600  0.53070  0.85150  Biso   1.000  C
  H9       1.0000 0.90720  0.55990  0.87020  Biso   1.000  H
  C12      1.0000 0.86370  0.57970  0.81840  Biso   1.000  C
  H10      1.0000 0.86860  0.64190  0.81530  Biso   1.000  H
  C13      1.0000 0.83401  0.53700  0.78937  Biso   1.000  C
  C14      1.0000 0.82748  0.44760  0.79636  Biso   1.000  C
  H11      1.0000 0.80720  0.41600  0.77730  Biso   1.000  H
  C15      1.0000 0.85076  0.40420  0.83150  Biso   1.000  C
  H12      1.0000 0.84580  0.34260  0.83620  Biso   1.000  H
  C16      1.0000 0.79557  0.72020  0.71855  Biso   1.000  C
  N4       1.0000 0.76622  0.68560  0.68886  Biso   1.000  N
  C17      1.0000 0.76051  0.59830  0.69414  Biso   1.000  C
  N5       1.0000 0.78101  0.54670  0.72619  Biso   1.000  N
  C18      1.0000 0.81026  0.58850  0.75254  Biso   1.000  C
  N6       1.0000 0.81945  0.67590  0.74974  Biso   1.000  N
  N7       1.0000 0.57937  0.48820  0.55729  Biso   1.000  N
  C19      1.0000 0.56470  0.53520  0.52190  Biso   1.000  C
  H13      1.0000 0.57620  0.52980  0.49670  Biso   1.000  H
  C20      1.0000 0.53320  0.59190  0.52023  Biso   1.000  C
  H14      1.0000 0.52360  0.62560  0.49440  Biso   1.000  H
  C21      1.0000 0.51585  0.59970  0.55565  Biso   1.000  C
  C22      1.0000 0.53330  0.55480  0.59380  Biso   1.000  C
  H15      1.0000 0.52370  0.56220  0.62010  Biso   1.000  H
  C23      1.0000 0.56450  0.50000  0.59250  Biso   1.000  C
  H16      1.0000 0.57600  0.46870  0.61850  Biso   1.000  H
  N8       1.0000 0.43205  0.01750  0.45224  Biso   1.000  N
  C24      1.0000 0.46304  0.96480  0.45289  Biso   1.000  C
  H17      1.0000 0.48140  0.98000  0.43520  Biso   1.000  H
  C25      1.0000 0.46923  0.88850  0.47872  Biso   1.000  C
  H18      1.0000 0.49140  0.85150  0.47840  Biso   1.000  H
  C26      1.0000 0.44315  0.86690  0.50479  Biso   1.000  C
  C27      1.0000 0.41170  0.92300  0.50520  Biso   1.000  C
  H19      1.0000 0.39350  0.91070  0.52350  Biso   1.000  H
  C28      1.0000 0.40730  0.99800  0.47800  Biso   1.000  C
  H20      1.0000 0.38570  0.03680  0.47810  Biso   1.000  H
  N9       1.0000 0.35842  0.65720  0.67880  Biso   1.000  N
  C29      1.0000 0.38980  0.60900  0.67850  Biso   1.000  C
  H21      1.0000 0.39630  0.56290  0.69980  Biso   1.000  H
  C30      1.0000 0.41370  0.62090  0.64930  Biso   1.000  C
  H22      1.0000 0.43590  0.58300  0.65050  Biso   1.000  H
  C31      1.0000 0.40613  0.68670  0.61840  Biso   1.000  C
  C32      1.0000 0.37190  0.73380  0.61660  Biso   1.000  C
  H23      1.0000 0.36430  0.77800  0.59460  Biso   1.000  H
  C33      1.0000 0.34890  0.71660  0.64660  Biso   1.000  C
  H24      1.0000 0.32500  0.74870  0.64430  Biso   1.000  H
  C34      1.0000 0.48181  0.65980  0.55616  Biso   1.000  C
  N10      1.0000 0.47654  0.72730  0.52714  Biso   1.000  N
  C35      1.0000 0.44802  0.78430  0.53264  Biso   1.000  C
  N11      1.0000 0.42480  0.77520  0.56107  Biso   1.000  N
  C36      1.0000 0.43134  0.70220  0.58672  Biso   1.000  C
  N12      1.0000 0.46061  0.64380  0.58603  Biso   1.000  N
  Zn1      1.0000 0.42022  0.12770  0.40714  Biso   1.000  Zn
  I1       1.0000 0.38307  0.23886  0.44160  Biso   1.000  I
  I2       1.0000 0.47671  0.15072  0.37206  Biso   1.000  I
  Zn2      1.0000 0.82100  0.13820  0.72090  Biso   1.000  Zn
  I3       1.0000 0.75667  0.21900  0.69290  Biso   1.000  I
  I4       1.0000 0.86570  0.16870  0.79520  Biso   1.000  I
  Zn3      1.0000 0.62190  0.39610  0.56200  Biso   1.000  Zn
  I5       1.0000 0.60490  0.26450  0.60180  Biso   1.000  I
  I6       1.0000 0.64440  0.40490  0.48840  Biso   1.000  I
  Zn4      1.0000 0.82944  0.14250  0.73213  Biso   1.000  Zn
  I7       1.0000 0.76842  0.23401  0.70818  Biso   1.000  I
  I8       1.0000 0.87405  0.15885  0.80605  Biso   1.000  I
  Zn5      1.0000 0.63074  0.40710  0.55930  Biso   1.000  Zn
  I9       1.0000 0.61375  0.25830  0.59246  Biso   1.000  I
  I10      1.0000 0.65145  0.41230  0.48880  Biso   1.000  I
  Zn6      1.0000 0.41330  0.11230  0.40860  Biso   1.000  Zn
  I11      1.0000 0.37170  0.22790  0.44357  Biso   1.000  I
  I12      1.0000 0.47570  0.15390  0.37970  Biso   1.000  I
  N13      1.0000 0.31437  0.50270  0.72248  Biso   1.000  N
  C37      1.0000 0.28460  0.46860  0.69440  Biso   1.000  C
  H25      1.0000 0.26730  0.50790  0.67580  Biso   1.000  H
  C38      1.0000 0.27784  0.37660  0.69110  Biso   1.000  C
  H26      1.0000 0.25640  0.35390  0.67010  Biso   1.000  H
  C39      1.0000 0.30193  0.31900  0.71797  Biso   1.000  C
  C40      1.0000 0.33350  0.35620  0.74770  Biso   1.000  C
  H27      1.0000 0.35110  0.31870  0.76700  Biso   1.000  H
  C41      1.0000 0.33860  0.44830  0.74840  Biso   1.000  C
  H28      1.0000 0.36030  0.47330  0.76830  Biso   1.000  H
  N14      1.0000 0.16907  0.96580  0.60560  Biso   1.000  N
  C42      1.0000 0.17669  0.05210  0.60017  Biso   1.000  C
  H29      1.0000 0.16140  0.08340  0.57610  Biso   1.000  H
  C43      1.0000 0.20609  0.09840  0.62824  Biso   1.000  C
  H30      1.0000 0.21070  0.16010  0.62350  Biso   1.000  H
  C44      1.0000 0.22848  0.05290  0.66316  Biso   1.000  C
  C45      1.0000 0.22030  0.96270  0.66860  Biso   1.000  C
  H31      1.0000 0.23510  0.92960  0.69230  Biso   1.000  H
  C46      1.0000 0.19084  0.92220  0.63964  Biso   1.000  C
  H32      1.0000 0.18550  0.86060  0.64380  Biso   1.000  H
  N15      1.0000 0.37956  0.94460  0.85882  Biso   1.000  N
  C47      1.0000 0.38600  0.03070  0.85150  Biso   1.000  C
  H33      1.0000 0.40720  0.05990  0.87020  Biso   1.000  H
  C48      1.0000 0.36370  0.07970  0.81840  Biso   1.000  C
  H34      1.0000 0.36860  0.14190  0.81530  Biso   1.000  H
  C49      1.0000 0.33401  0.03700  0.78937  Biso   1.000  C
  C50      1.0000 0.32748  0.94760  0.79636  Biso   1.000  C
  H35      1.0000 0.30720  0.91600  0.77730  Biso   1.000  H
  C51      1.0000 0.35076  0.90420  0.83150  Biso   1.000  C
  H36      1.0000 0.34580  0.84260  0.83620  Biso   1.000  H
  C52      1.0000 0.29557  0.22020  0.71855  Biso   1.000  C
  N16      1.0000 0.26622  0.18560  0.68886  Biso   1.000  N
  C53      1.0000 0.26051  0.09830  0.69414  Biso   1.000  C
  N17      1.0000 0.28101  0.04670  0.72619  Biso   1.000  N
  C54      1.0000 0.31026  0.08850  0.75254  Biso   1.000  C
  N18      1.0000 0.31945  0.17590  0.74974  Biso   1.000  N
  N19      1.0000 0.07937  0.98820  0.55729  Biso   1.000  N
  C55      1.0000 0.06470  0.03520  0.52190  Biso   1.000  C
  H37      1.0000 0.07620  0.02980  0.49670  Biso   1.000  H
  C56      1.0000 0.03320  0.09190  0.52023  Biso   1.000  C
  H38      1.0000 0.02360  0.12560  0.49440  Biso   1.000  H
  C57      1.0000 0.01585  0.09970  0.55565  Biso   1.000  C
  C58      1.0000 0.03330  0.05480  0.59380  Biso   1.000  C
  H39      1.0000 0.02370  0.06220  0.62010  Biso   1.000  H
  C59      1.0000 0.06450  0.00000  0.59250  Biso   1.000  C
  H40      1.0000 0.07600  0.96870  0.61850  Biso   1.000  H
  N20      1.0000 0.93205  0.51750  0.45224  Biso   1.000  N
  C60      1.0000 0.96304  0.46480  0.45289  Biso   1.000  C
  H41      1.0000 0.98140  0.48000  0.43520  Biso   1.000  H
  C61      1.0000 0.96923  0.38850  0.47872  Biso   1.000  C
  H42      1.0000 0.99140  0.35150  0.47840  Biso   1.000  H
  C62      1.0000 0.94315  0.36690  0.50479  Biso   1.000  C
  C63      1.0000 0.91170  0.42300  0.50520  Biso   1.000  C
  H43      1.0000 0.89350  0.41070  0.52350  Biso   1.000  H
  C64      1.0000 0.90730  0.49800  0.47800  Biso   1.000  C
  H44      1.0000 0.88570  0.53680  0.47810  Biso   1.000  H
  N21      1.0000 0.85842  0.15720  0.67880  Biso   1.000  N
  C65      1.0000 0.88980  0.10900  0.67850  Biso   1.000  C
  H45      1.0000 0.89630  0.06290  0.69980  Biso   1.000  H
  C66      1.0000 0.91370  0.12090  0.64930  Biso   1.000  C
  H46      1.0000 0.93590  0.08300  0.65050  Biso   1.000  H
  C67      1.0000 0.90613  0.18670  0.61840  Biso   1.000  C
  C68      1.0000 0.87190  0.23380  0.61660  Biso   1.000  C
  H47      1.0000 0.86430  0.27800  0.59460  Biso   1.000  H
  C69      1.0000 0.84890  0.21660  0.64660  Biso   1.000  C
  H48      1.0000 0.82500  0.24870  0.64430  Biso   1.000  H
  C70      1.0000 0.98181  0.15980  0.55616  Biso   1.000  C
  N22      1.0000 0.97654  0.22730  0.52714  Biso   1.000  N
  C71      1.0000 0.94802  0.28430  0.53264  Biso   1.000  C
  N23      1.0000 0.92480  0.27520  0.56107  Biso   1.000  N
  C72      1.0000 0.93134  0.20220  0.58672  Biso   1.000  C
  N24      1.0000 0.96061  0.14380  0.58603  Biso   1.000  N
  Zn7      1.0000 0.92022  0.62770  0.40714  Biso   1.000  Zn
  I13      1.0000 0.88307  0.73886  0.44160  Biso   1.000  I
  I14      1.0000 0.97671  0.65072  0.37206  Biso   1.000  I
  Zn8      1.0000 0.32100  0.63820  0.72090  Biso   1.000  Zn
  I15      1.0000 0.25667  0.71900  0.69290  Biso   1.000  I
  I16      1.0000 0.36570  0.66870  0.79520  Biso   1.000  I
  Zn9      1.0000 0.12190  0.89610  0.56200  Biso   1.000  Zn
  I17      1.0000 0.10490  0.76450  0.60180  Biso   1.000  I
  I18      1.0000 0.14440  0.90490  0.48840  Biso   1.000  I
  Zn10     1.0000 0.32944  0.64250  0.73213  Biso   1.000  Zn
  I19      1.0000 0.26842  0.73401  0.70818  Biso   1.000  I
  I20      1.0000 0.37405  0.65885  0.80605  Biso   1.000  I
  Zn11     1.0000 0.13074  0.90710  0.55930  Biso   1.000  Zn
  I21      1.0000 0.11375  0.75830  0.59246  Biso   1.000  I
  I22      1.0000 0.15145  0.91230  0.48880  Biso   1.000  I
  Zn12     1.0000 0.91330  0.61230  0.40860  Biso   1.000  Zn
  I23      1.0000 0.87170  0.72790  0.44357  Biso   1.000  I
  I24      1.0000 0.97570  0.65390  0.37970  Biso   1.000  I
  N25      1.0000 0.81437  0.99730  0.22248  Biso   1.000  N
  C73      1.0000 0.78460  0.03140  0.19440  Biso   1.000  C
  H49      1.0000 0.76730  0.99210  0.17580  Biso   1.000  H
  C74      1.0000 0.77784  0.12340  0.19110  Biso   1.000  C
  H50      1.0000 0.75640  0.14610  0.17010  Biso   1.000  H
  C75      1.0000 0.80193  0.18100  0.21797  Biso   1.000  C
  C76      1.0000 0.83350  0.14380  0.24770  Biso   1.000  C
  H51      1.0000 0.85110  0.18130  0.26700  Biso   1.000  H
  C77      1.0000 0.83860  0.05170  0.24840  Biso   1.000  C
  H52      1.0000 0.86030  0.02670  0.26830  Biso   1.000  H
  N26      1.0000 0.66907  0.53420  0.10560  Biso   1.000  N
  C78      1.0000 0.67669  0.44790  0.10017  Biso   1.000  C
  H53      1.0000 0.66140  0.41660  0.07610  Biso   1.000  H
  C79      1.0000 0.70609  0.40160  0.12824  Biso   1.000  C
  H54      1.0000 0.71070  0.33990  0.12350  Biso   1.000  H
  C80      1.0000 0.72848  0.44710  0.16316  Biso   1.000  C
  C81      1.0000 0.72030  0.53730  0.16860  Biso   1.000  C
  H55      1.0000 0.73510  0.57040  0.19230  Biso   1.000  H
  C82      1.0000 0.69084  0.57780  0.13964  Biso   1.000  C
  H56      1.0000 0.68550  0.63940  0.14380  Biso   1.000  H
  N27      1.0000 0.87956  0.55540  0.35882  Biso   1.000  N
  C83      1.0000 0.88600  0.46930  0.35150  Biso   1.000  C
  H57      1.0000 0.90720  0.44010  0.37020  Biso   1.000  H
  C84      1.0000 0.86370  0.42030  0.31840  Biso   1.000  C
  H58      1.0000 0.86860  0.35810  0.31530  Biso   1.000  H
  C85      1.0000 0.83401  0.46300  0.28937  Biso   1.000  C
  C86      1.0000 0.82748  0.55240  0.29636  Biso   1.000  C
  H59      1.0000 0.80720  0.58400  0.27730  Biso   1.000  H
  C87      1.0000 0.85076  0.59580  0.33150  Biso   1.000  C
  H60      1.0000 0.84580  0.65740  0.33620  Biso   1.000  H
  C88      1.0000 0.79557  0.27980  0.21855  Biso   1.000  C
  N28      1.0000 0.76622  0.31440  0.18886  Biso   1.000  N
  C89      1.0000 0.76051  0.40170  0.19414  Biso   1.000  C
  N29      1.0000 0.78101  0.45330  0.22619  Biso   1.000  N
  C90      1.0000 0.81026  0.41150  0.25254  Biso   1.000  C
  N30      1.0000 0.81945  0.32410  0.24974  Biso   1.000  N
  N31      1.0000 0.57937  0.51180  0.05729  Biso   1.000  N
  C91      1.0000 0.56470  0.46480  0.02190  Biso   1.000  C
  H61      1.0000 0.57620  0.47020  0.99670  Biso   1.000  H
  C92      1.0000 0.53320  0.40810  0.02023  Biso   1.000  C
  H62      1.0000 0.52360  0.37440  0.99440  Biso   1.000  H
  C93      1.0000 0.51585  0.40030  0.05565  Biso   1.000  C
  C94      1.0000 0.53330  0.44520  0.09380  Biso   1.000  C
  H63      1.0000 0.52370  0.43780  0.12010  Biso   1.000  H
  C95      1.0000 0.56450  0.50000  0.09250  Biso   1.000  C
  H64      1.0000 0.57600  0.53130  0.11850  Biso   1.000  H
  N32      1.0000 0.43205  0.98250  0.95224  Biso   1.000  N
  C96      1.0000 0.46304  0.03520  0.95289  Biso   1.000  C
  H65      1.0000 0.48140  0.02000  0.93520  Biso   1.000  H
  C97      1.0000 0.46923  0.11150  0.97872  Biso   1.000  C
  H66      1.0000 0.49140  0.14850  0.97840  Biso   1.000  H
  C98      1.0000 0.44315  0.13310  0.00479  Biso   1.000  C
  C99      1.0000 0.41170  0.07700  0.00520  Biso   1.000  C
  H67      1.0000 0.39350  0.08930  0.02350  Biso   1.000  H
  C100     1.0000 0.40730  0.00200  0.97800  Biso   1.000  C
  H68      1.0000 0.38570  0.96320  0.97810  Biso   1.000  H
  N33      1.0000 0.35842  0.34280  0.17880  Biso   1.000  N
  C101     1.0000 0.38980  0.39100  0.17850  Biso   1.000  C
  H69      1.0000 0.39630  0.43710  0.19980  Biso   1.000  H
  C102     1.0000 0.41370  0.37910  0.14930  Biso   1.000  C
  H70      1.0000 0.43590  0.41700  0.15050  Biso   1.000  H
  C103     1.0000 0.40613  0.31330  0.11840  Biso   1.000  C
  C104     1.0000 0.37190  0.26620  0.11660  Biso   1.000  C
  H71      1.0000 0.36430  0.22200  0.09460  Biso   1.000  H
  C105     1.0000 0.34890  0.28340  0.14660  Biso   1.000  C
  H72      1.0000 0.32500  0.25130  0.14430  Biso   1.000  H
  C106     1.0000 0.48181  0.34020  0.05616  Biso   1.000  C
  N34      1.0000 0.47654  0.27270  0.02714  Biso   1.000  N
  C107     1.0000 0.44802  0.21570  0.03264  Biso   1.000  C
  N35      1.0000 0.42480  0.22480  0.06107  Biso   1.000  N
  C108     1.0000 0.43134  0.29780  0.08672  Biso   1.000  C
  N36      1.0000 0.46061  0.35620  0.08603  Biso   1.000  N
  Zn13     1.0000 0.42022  0.87230  0.90714  Biso   1.000  Zn
  I25      1.0000 0.38307  0.76114  0.94160  Biso   1.000  I
  I26      1.0000 0.47671  0.84928  0.87206  Biso   1.000  I
  Zn14     1.0000 0.82100  0.86180  0.22090  Biso   1.000  Zn
  I27      1.0000 0.75667  0.78100  0.19290  Biso   1.000  I
  I28      1.0000 0.86570  0.83130  0.29520  Biso   1.000  I
  Zn15     1.0000 0.62190  0.60390  0.06200  Biso   1.000  Zn
  I29      1.0000 0.60490  0.73550  0.10180  Biso   1.000  I
  I30      1.0000 0.64440  0.59510  0.98840  Biso   1.000  I
  Zn16     1.0000 0.82944  0.85750  0.23213  Biso   1.000  Zn
  I31      1.0000 0.76842  0.76599  0.20818  Biso   1.000  I
  I32      1.0000 0.87405  0.84115  0.30605  Biso   1.000  I
  Zn17     1.0000 0.63074  0.59290  0.05930  Biso   1.000  Zn
  I33      1.0000 0.61375  0.74170  0.09246  Biso   1.000  I
  I34      1.0000 0.65145  0.58770  0.98880  Biso   1.000  I
  Zn18     1.0000 0.41330  0.88770  0.90860  Biso   1.000  Zn
  I35      1.0000 0.37170  0.77210  0.94357  Biso   1.000  I
  I36      1.0000 0.47570  0.84610  0.87970  Biso   1.000  I
  N37      1.0000 0.31437  0.49730  0.22248  Biso   1.000  N
  C109     1.0000 0.28460  0.53140  0.19440  Biso   1.000  C
  H73      1.0000 0.26730  0.49210  0.17580  Biso   1.000  H
  C110     1.0000 0.27784  0.62340  0.19110  Biso   1.000  C
  H74      1.0000 0.25640  0.64610  0.17010  Biso   1.000  H
  C111     1.0000 0.30193  0.68100  0.21797  Biso   1.000  C
  C112     1.0000 0.33350  0.64380  0.24770  Biso   1.000  C
  H75      1.0000 0.35110  0.68130  0.26700  Biso   1.000  H
  C113     1.0000 0.33860  0.55170  0.24840  Biso   1.000  C
  H76      1.0000 0.36030  0.52670  0.26830  Biso   1.000  H
  N38      1.0000 0.16907  0.03420  0.10560  Biso   1.000  N
  C114     1.0000 0.17669  0.94790  0.10017  Biso   1.000  C
  H77      1.0000 0.16140  0.91660  0.07610  Biso   1.000  H
  C115     1.0000 0.20609  0.90160  0.12824  Biso   1.000  C
  H78      1.0000 0.21070  0.83990  0.12350  Biso   1.000  H
  C116     1.0000 0.22848  0.94710  0.16316  Biso   1.000  C
  C117     1.0000 0.22030  0.03730  0.16860  Biso   1.000  C
  H79      1.0000 0.23510  0.07040  0.19230  Biso   1.000  H
  C118     1.0000 0.19084  0.07780  0.13964  Biso   1.000  C
  H80      1.0000 0.18550  0.13940  0.14380  Biso   1.000  H
  N39      1.0000 0.37956  0.05540  0.35882  Biso   1.000  N
  C119     1.0000 0.38600  0.96930  0.35150  Biso   1.000  C
  H81      1.0000 0.40720  0.94010  0.37020  Biso   1.000  H
  C120     1.0000 0.36370  0.92030  0.31840  Biso   1.000  C
  H82      1.0000 0.36860  0.85810  0.31530  Biso   1.000  H
  C121     1.0000 0.33401  0.96300  0.28937  Biso   1.000  C
  C122     1.0000 0.32748  0.05240  0.29636  Biso   1.000  C
  H83      1.0000 0.30720  0.08400  0.27730  Biso   1.000  H
  C123     1.0000 0.35076  0.09580  0.33150  Biso   1.000  C
  H84      1.0000 0.34580  0.15740  0.33620  Biso   1.000  H
  C124     1.0000 0.29557  0.77980  0.21855  Biso   1.000  C
  N40      1.0000 0.26622  0.81440  0.18886  Biso   1.000  N
  C125     1.0000 0.26051  0.90170  0.19414  Biso   1.000  C
  N41      1.0000 0.28101  0.95330  0.22619  Biso   1.000  N
  C126     1.0000 0.31026  0.91150  0.25254  Biso   1.000  C
  N42      1.0000 0.31945  0.82410  0.24974  Biso   1.000  N
  N43      1.0000 0.07937  0.01180  0.05729  Biso   1.000  N
  C127     1.0000 0.06470  0.96480  0.02190  Biso   1.000  C
  H85      1.0000 0.07620  0.97020  0.99670  Biso   1.000  H
  C128     1.0000 0.03320  0.90810  0.02023  Biso   1.000  C
  H86      1.0000 0.02360  0.87440  0.99440  Biso   1.000  H
  C129     1.0000 0.01585  0.90030  0.05565  Biso   1.000  C
  C130     1.0000 0.03330  0.94520  0.09380  Biso   1.000  C
  H87      1.0000 0.02370  0.93780  0.12010  Biso   1.000  H
  C131     1.0000 0.06450  0.00000  0.09250  Biso   1.000  C
  H88      1.0000 0.07600  0.03130  0.11850  Biso   1.000  H
  N44      1.0000 0.93205  0.48250  0.95224  Biso   1.000  N
  C132     1.0000 0.96304  0.53520  0.95289  Biso   1.000  C
  H89      1.0000 0.98140  0.52000  0.93520  Biso   1.000  H
  C133     1.0000 0.96923  0.61150  0.97872  Biso   1.000  C
  H90      1.0000 0.99140  0.64850  0.97840  Biso   1.000  H
  C134     1.0000 0.94315  0.63310  0.00479  Biso   1.000  C
  C135     1.0000 0.91170  0.57700  0.00520  Biso   1.000  C
  H91      1.0000 0.89350  0.58930  0.02350  Biso   1.000  H
  C136     1.0000 0.90730  0.50200  0.97800  Biso   1.000  C
  H92      1.0000 0.88570  0.46320  0.97810  Biso   1.000  H
  N45      1.0000 0.85842  0.84280  0.17880  Biso   1.000  N
  C137     1.0000 0.88980  0.89100  0.17850  Biso   1.000  C
  H93      1.0000 0.89630  0.93710  0.19980  Biso   1.000  H
  C138     1.0000 0.91370  0.87910  0.14930  Biso   1.000  C
  H94      1.0000 0.93590  0.91700  0.15050  Biso   1.000  H
  C139     1.0000 0.90613  0.81330  0.11840  Biso   1.000  C
  C140     1.0000 0.87190  0.76620  0.11660  Biso   1.000  C
  H95      1.0000 0.86430  0.72200  0.09460  Biso   1.000  H
  C141     1.0000 0.84890  0.78340  0.14660  Biso   1.000  C
  H96      1.0000 0.82500  0.75130  0.14430  Biso   1.000  H
  C142     1.0000 0.98181  0.84020  0.05616  Biso   1.000  C
  N46      1.0000 0.97654  0.77270  0.02714  Biso   1.000  N
  C143     1.0000 0.94802  0.71570  0.03264  Biso   1.000  C
  N47      1.0000 0.92480  0.72480  0.06107  Biso   1.000  N
  C144     1.0000 0.93134  0.79780  0.08672  Biso   1.000  C
  N48      1.0000 0.96061  0.85620  0.08603  Biso   1.000  N
  Zn19     1.0000 0.92022  0.37230  0.90714  Biso   1.000  Zn
  I37      1.0000 0.88307  0.26114  0.94160  Biso   1.000  I
  I38      1.0000 0.97671  0.34928  0.87206  Biso   1.000  I
  Zn20     1.0000 0.32100  0.36180  0.22090  Biso   1.000  Zn
  I39      1.0000 0.25667  0.28100  0.19290  Biso   1.000  I
  I40      1.0000 0.36570  0.33130  0.29520  Biso   1.000  I
  Zn21     1.0000 0.12190  0.10390  0.06200  Biso   1.000  Zn
  I41      1.0000 0.10490  0.23550  0.10180  Biso   1.000  I
  I42      1.0000 0.14440  0.09510  0.98840  Biso   1.000  I
  Zn22     1.0000 0.32944  0.35750  0.23213  Biso   1.000  Zn
  I43      1.0000 0.26842  0.26599  0.20818  Biso   1.000  I
  I44      1.0000 0.37405  0.34115  0.30605  Biso   1.000  I
  Zn23     1.0000 0.13074  0.09290  0.05930  Biso   1.000  Zn
  I45      1.0000 0.11375  0.24170  0.09246  Biso   1.000  I
  I46      1.0000 0.15145  0.08770  0.98880  Biso   1.000  I
  Zn24     1.0000 0.91330  0.38770  0.90860  Biso   1.000  Zn
  I47      1.0000 0.87170  0.27210  0.94357  Biso   1.000  I
  I48      1.0000 0.97570  0.34610  0.87970  Biso   1.000  I
  N49      1.0000 0.18563  0.00270  0.77752  Biso   1.000  N
  C145     1.0000 0.21540  0.96860  0.80560  Biso   1.000  C
  H97      1.0000 0.23270  0.00790  0.82420  Biso   1.000  H
  C146     1.0000 0.22216  0.87660  0.80890  Biso   1.000  C
  H98      1.0000 0.24360  0.85390  0.82990  Biso   1.000  H
  C147     1.0000 0.19807  0.81900  0.78203  Biso   1.000  C
  C148     1.0000 0.16650  0.85620  0.75230  Biso   1.000  C
  H99      1.0000 0.14890  0.81870  0.73300  Biso   1.000  H
  C149     1.0000 0.16140  0.94830  0.75160  Biso   1.000  C
  H100     1.0000 0.13970  0.97330  0.73170  Biso   1.000  H
  N50      1.0000 0.33093  0.46580  0.89440  Biso   1.000  N
  C150     1.0000 0.32331  0.55210  0.89983  Biso   1.000  C
  H101     1.0000 0.33860  0.58340  0.92390  Biso   1.000  H
  C151     1.0000 0.29391  0.59840  0.87176  Biso   1.000  C
  H102     1.0000 0.28930  0.66010  0.87650  Biso   1.000  H
  C152     1.0000 0.27152  0.55290  0.83684  Biso   1.000  C
  C153     1.0000 0.27970  0.46270  0.83140  Biso   1.000  C
  H103     1.0000 0.26490  0.42960  0.80770  Biso   1.000  H
  C154     1.0000 0.30916  0.42220  0.86036  Biso   1.000  C
  H104     1.0000 0.31450  0.36060  0.85620  Biso   1.000  H
  N51      1.0000 0.12044  0.44460  0.64118  Biso   1.000  N
  C155     1.0000 0.11400  0.53070  0.64850  Biso   1.000  C
  H105     1.0000 0.09280  0.55990  0.62980  Biso   1.000  H
  C156     1.0000 0.13630  0.57970  0.68160  Biso   1.000  C
  H106     1.0000 0.13140  0.64190  0.68470  Biso   1.000  H
  C157     1.0000 0.16599  0.53700  0.71063  Biso   1.000  C
  C158     1.0000 0.17252  0.44760  0.70364  Biso   1.000  C
  H107     1.0000 0.19280  0.41600  0.72270  Biso   1.000  H
  C159     1.0000 0.14924  0.40420  0.66850  Biso   1.000  C
  H108     1.0000 0.15420  0.34260  0.66380  Biso   1.000  H
  C160     1.0000 0.20443  0.72020  0.78145  Biso   1.000  C
  N52      1.0000 0.23378  0.68560  0.81114  Biso   1.000  N
  C161     1.0000 0.23949  0.59830  0.80586  Biso   1.000  C
  N53      1.0000 0.21899  0.54670  0.77381  Biso   1.000  N
  C162     1.0000 0.18974  0.58850  0.74746  Biso   1.000  C
  N54      1.0000 0.18055  0.67590  0.75026  Biso   1.000  N
  N55      1.0000 0.42063  0.48820  0.94271  Biso   1.000  N
  C163     1.0000 0.43530  0.53520  0.97810  Biso   1.000  C
  H109     1.0000 0.42380  0.52980  0.00330  Biso   1.000  H
  C164     1.0000 0.46680  0.59190  0.97977  Biso   1.000  C
  H110     1.0000 0.47640  0.62560  0.00560  Biso   1.000  H
  C165     1.0000 0.48415  0.59970  0.94435  Biso   1.000  C
  C166     1.0000 0.46670  0.55480  0.90620  Biso   1.000  C
  H111     1.0000 0.47630  0.56220  0.87990  Biso   1.000  H
  C167     1.0000 0.43550  0.50000  0.90750  Biso   1.000  C
  H112     1.0000 0.42400  0.46870  0.88150  Biso   1.000  H
  N56      1.0000 0.56795  0.01750  0.04776  Biso   1.000  N
  C168     1.0000 0.53696  0.96480  0.04711  Biso   1.000  C
  H113     1.0000 0.51860  0.98000  0.06480  Biso   1.000  H
  C169     1.0000 0.53077  0.88850  0.02128  Biso   1.000  C
  H114     1.0000 0.50860  0.85150  0.02160  Biso   1.000  H
  C170     1.0000 0.55685  0.86690  0.99521  Biso   1.000  C
  C171     1.0000 0.58830  0.92300  0.99480  Biso   1.000  C
  H115     1.0000 0.60650  0.91070  0.97650  Biso   1.000  H
  C172     1.0000 0.59270  0.99800  0.02200  Biso   1.000  C
  H116     1.0000 0.61430  0.03680  0.02190  Biso   1.000  H
  N57      1.0000 0.64158  0.65720  0.82120  Biso   1.000  N
  C173     1.0000 0.61020  0.60900  0.82150  Biso   1.000  C
  H117     1.0000 0.60370  0.56290  0.80020  Biso   1.000  H
  C174     1.0000 0.58630  0.62090  0.85070  Biso   1.000  C
  H118     1.0000 0.56410  0.58300  0.84950  Biso   1.000  H
  C175     1.0000 0.59387  0.68670  0.88160  Biso   1.000  C
  C176     1.0000 0.62810  0.73380  0.88340  Biso   1.000  C
  H119     1.0000 0.63570  0.77800  0.90540  Biso   1.000  H
  C177     1.0000 0.65110  0.71660  0.85340  Biso   1.000  C
  H120     1.0000 0.67500  0.74870  0.85570  Biso   1.000  H
  C178     1.0000 0.51819  0.65980  0.94384  Biso   1.000  C
  N58      1.0000 0.52346  0.72730  0.97286  Biso   1.000  N
  C179     1.0000 0.55198  0.78430  0.96736  Biso   1.000  C
  N59      1.0000 0.57520  0.77520  0.93893  Biso   1.000  N
  C180     1.0000 0.56866  0.70220  0.91328  Biso   1.000  C
  N60      1.0000 0.53939  0.64380  0.91397  Biso   1.000  N
  Zn25     1.0000 0.57978  0.12770  0.09286  Biso   1.000  Zn
  I49      1.0000 0.61693  0.23886  0.05840  Biso   1.000  I
  I50      1.0000 0.52329  0.15072  0.12794  Biso   1.000  I
  Zn26     1.0000 0.17900  0.13820  0.77910  Biso   1.000  Zn
  I51      1.0000 0.24333  0.21900  0.80710  Biso   1.000  I
  I52      1.0000 0.13430  0.16870  0.70480  Biso   1.000  I
  Zn27     1.0000 0.37810  0.39610  0.93800  Biso   1.000  Zn
  I53      1.0000 0.39510  0.26450  0.89820  Biso   1.000  I
  I54      1.0000 0.35560  0.40490  0.01160  Biso   1.000  I
  Zn28     1.0000 0.17056  0.14250  0.76787  Biso   1.000  Zn
  I55      1.0000 0.23158  0.23401  0.79182  Biso   1.000  I
  I56      1.0000 0.12595  0.15885  0.69395  Biso   1.000  I
  Zn29     1.0000 0.36926  0.40710  0.94070  Biso   1.000  Zn
  I57      1.0000 0.38625  0.25830  0.90754  Biso   1.000  I
  I58      1.0000 0.34855  0.41230  0.01120  Biso   1.000  I
  Zn30     1.0000 0.58670  0.11230  0.09140  Biso   1.000  Zn
  I59      1.0000 0.62830  0.22790  0.05643  Biso   1.000  I
  I60      1.0000 0.52430  0.15390  0.12030  Biso   1.000  I
  N61      1.0000 0.68563  0.50270  0.77752  Biso   1.000  N
  C181     1.0000 0.71540  0.46860  0.80560  Biso   1.000  C
  H121     1.0000 0.73270  0.50790  0.82420  Biso   1.000  H
  C182     1.0000 0.72216  0.37660  0.80890  Biso   1.000  C
  H122     1.0000 0.74360  0.35390  0.82990  Biso   1.000  H
  C183     1.0000 0.69807  0.31900  0.78203  Biso   1.000  C
  C184     1.0000 0.66650  0.35620  0.75230  Biso   1.000  C
  H123     1.0000 0.64890  0.31870  0.73300  Biso   1.000  H
  C185     1.0000 0.66140  0.44830  0.75160  Biso   1.000  C
  H124     1.0000 0.63970  0.47330  0.73170  Biso   1.000  H
  N62      1.0000 0.83093  0.96580  0.89440  Biso   1.000  N
  C186     1.0000 0.82331  0.05210  0.89983  Biso   1.000  C
  H125     1.0000 0.83860  0.08340  0.92390  Biso   1.000  H
  C187     1.0000 0.79391  0.09840  0.87176  Biso   1.000  C
  H126     1.0000 0.78930  0.16010  0.87650  Biso   1.000  H
  C188     1.0000 0.77152  0.05290  0.83684  Biso   1.000  C
  C189     1.0000 0.77970  0.96270  0.83140  Biso   1.000  C
  H127     1.0000 0.76490  0.92960  0.80770  Biso   1.000  H
  C190     1.0000 0.80916  0.92220  0.86036  Biso   1.000  C
  H128     1.0000 0.81450  0.86060  0.85620  Biso   1.000  H
  N63      1.0000 0.62044  0.94460  0.64118  Biso   1.000  N
  C191     1.0000 0.61400  0.03070  0.64850  Biso   1.000  C
  H129     1.0000 0.59280  0.05990  0.62980  Biso   1.000  H
  C192     1.0000 0.63630  0.07970  0.68160  Biso   1.000  C
  H130     1.0000 0.63140  0.14190  0.68470  Biso   1.000  H
  C193     1.0000 0.66599  0.03700  0.71063  Biso   1.000  C
  C194     1.0000 0.67252  0.94760  0.70364  Biso   1.000  C
  H131     1.0000 0.69280  0.91600  0.72270  Biso   1.000  H
  C195     1.0000 0.64924  0.90420  0.66850  Biso   1.000  C
  H132     1.0000 0.65420  0.84260  0.66380  Biso   1.000  H
  C196     1.0000 0.70443  0.22020  0.78145  Biso   1.000  C
  N64      1.0000 0.73378  0.18560  0.81114  Biso   1.000  N
  C197     1.0000 0.73949  0.09830  0.80586  Biso   1.000  C
  N65      1.0000 0.71899  0.04670  0.77381  Biso   1.000  N
  C198     1.0000 0.68974  0.08850  0.74746  Biso   1.000  C
  N66      1.0000 0.68055  0.17590  0.75026  Biso   1.000  N
  N67      1.0000 0.92063  0.98820  0.94271  Biso   1.000  N
  C199     1.0000 0.93530  0.03520  0.97810  Biso   1.000  C
  H133     1.0000 0.92380  0.02980  0.00330  Biso   1.000  H
  C200     1.0000 0.96680  0.09190  0.97977  Biso   1.000  C
  H134     1.0000 0.97640  0.12560  0.00560  Biso   1.000  H
  C201     1.0000 0.98415  0.09970  0.94435  Biso   1.000  C
  C202     1.0000 0.96670  0.05480  0.90620  Biso   1.000  C
  H135     1.0000 0.97630  0.06220  0.87990  Biso   1.000  H
  C203     1.0000 0.93550  0.00000  0.90750  Biso   1.000  C
  H136     1.0000 0.92400  0.96870  0.88150  Biso   1.000  H
  N68      1.0000 0.06795  0.51750  0.04776  Biso   1.000  N
  C204     1.0000 0.03696  0.46480  0.04711  Biso   1.000  C
  H137     1.0000 0.01860  0.48000  0.06480  Biso   1.000  H
  C205     1.0000 0.03077  0.38850  0.02128  Biso   1.000  C
  H138     1.0000 0.00860  0.35150  0.02160  Biso   1.000  H
  C206     1.0000 0.05685  0.36690  0.99521  Biso   1.000  C
  C207     1.0000 0.08830  0.42300  0.99480  Biso   1.000  C
  H139     1.0000 0.10650  0.41070  0.97650  Biso   1.000  H
  C208     1.0000 0.09270  0.49800  0.02200  Biso   1.000  C
  H140     1.0000 0.11430  0.53680  0.02190  Biso   1.000  H
  N69      1.0000 0.14158  0.15720  0.82120  Biso   1.000  N
  C209     1.0000 0.11020  0.10900  0.82150  Biso   1.000  C
  H141     1.0000 0.10370  0.06290  0.80020  Biso   1.000  H
  C210     1.0000 0.08630  0.12090  0.85070  Biso   1.000  C
  H142     1.0000 0.06410  0.08300  0.84950  Biso   1.000  H
  C211     1.0000 0.09387  0.18670  0.88160  Biso   1.000  C
  C212     1.0000 0.12810  0.23380  0.88340  Biso   1.000  C
  H143     1.0000 0.13570  0.27800  0.90540  Biso   1.000  H
  C213     1.0000 0.15110  0.21660  0.85340  Biso   1.000  C
  H144     1.0000 0.17500  0.24870  0.85570  Biso   1.000  H
  C214     1.0000 0.01819  0.15980  0.94384  Biso   1.000  C
  N70      1.0000 0.02346  0.22730  0.97286  Biso   1.000  N
  C215     1.0000 0.05198  0.28430  0.96736  Biso   1.000  C
  N71      1.0000 0.07520  0.27520  0.93893  Biso   1.000  N
  C216     1.0000 0.06866  0.20220  0.91328  Biso   1.000  C
  N72      1.0000 0.03939  0.14380  0.91397  Biso   1.000  N
  Zn31     1.0000 0.07978  0.62770  0.09286  Biso   1.000  Zn
  I61      1.0000 0.11693  0.73886  0.05840  Biso   1.000  I
  I62      1.0000 0.02329  0.65072  0.12794  Biso   1.000  I
  Zn32     1.0000 0.67900  0.63820  0.77910  Biso   1.000  Zn
  I63      1.0000 0.74333  0.71900  0.80710  Biso   1.000  I
  I64      1.0000 0.63430  0.66870  0.70480  Biso   1.000  I
  Zn33     1.0000 0.87810  0.89610  0.93800  Biso   1.000  Zn
  I65      1.0000 0.89510  0.76450  0.89820  Biso   1.000  I
  I66      1.0000 0.85560  0.90490  0.01160  Biso   1.000  I
  Zn34     1.0000 0.67056  0.64250  0.76787  Biso   1.000  Zn
  I67      1.0000 0.73158  0.73401  0.79182  Biso   1.000  I
  I68      1.0000 0.62595  0.65885  0.69395  Biso   1.000  I
  Zn35     1.0000 0.86926  0.90710  0.94070  Biso   1.000  Zn
  I69      1.0000 0.88625  0.75830  0.90754  Biso   1.000  I
  I70      1.0000 0.84855  0.91230  0.01120  Biso   1.000  I
  Zn36     1.0000 0.08670  0.61230  0.09140  Biso   1.000  Zn
  I71      1.0000 0.12830  0.72790  0.05643  Biso   1.000  I
  I72      1.0000 0.02430  0.65390  0.12030  Biso   1.000  I
  N73      1.0000 0.18563  0.99730  0.27752  Biso   1.000  N
  C217     1.0000 0.21540  0.03140  0.30560  Biso   1.000  C
  H145     1.0000 0.23270  0.99210  0.32420  Biso   1.000  H
  C218     1.0000 0.22216  0.12340  0.30890  Biso   1.000  C
  H146     1.0000 0.24360  0.14610  0.32990  Biso   1.000  H
  C219     1.0000 0.19807  0.18100  0.28203  Biso   1.000  C
  C220     1.0000 0.16650  0.14380  0.25230  Biso   1.000  C
  H147     1.0000 0.14890  0.18130  0.23300  Biso   1.000  H
  C221     1.0000 0.16140  0.05170  0.25160  Biso   1.000  C
  H148     1.0000 0.13970  0.02670  0.23170  Biso   1.000  H
  N74      1.0000 0.33093  0.53420  0.39440  Biso   1.000  N
  C222     1.0000 0.32331  0.44790  0.39983  Biso   1.000  C
  H149     1.0000 0.33860  0.41660  0.42390  Biso   1.000  H
  C223     1.0000 0.29391  0.40160  0.37176  Biso   1.000  C
  H150     1.0000 0.28930  0.33990  0.37650  Biso   1.000  H
  C224     1.0000 0.27152  0.44710  0.33684  Biso   1.000  C
  C225     1.0000 0.27970  0.53730  0.33140  Biso   1.000  C
  H151     1.0000 0.26490  0.57040  0.30770  Biso   1.000  H
  C226     1.0000 0.30916  0.57780  0.36036  Biso   1.000  C
  H152     1.0000 0.31450  0.63940  0.35620  Biso   1.000  H
  N75      1.0000 0.12044  0.55540  0.14118  Biso   1.000  N
  C227     1.0000 0.11400  0.46930  0.14850  Biso   1.000  C
  H153     1.0000 0.09280  0.44010  0.12980  Biso   1.000  H
  C228     1.0000 0.13630  0.42030  0.18160  Biso   1.000  C
  H154     1.0000 0.13140  0.35810  0.18470  Biso   1.000  H
  C229     1.0000 0.16599  0.46300  0.21063  Biso   1.000  C
  C230     1.0000 0.17252  0.55240  0.20364  Biso   1.000  C
  H155     1.0000 0.19280  0.58400  0.22270  Biso   1.000  H
  C231     1.0000 0.14924  0.59580  0.16850  Biso   1.000  C
  H156     1.0000 0.15420  0.65740  0.16380  Biso   1.000  H
  C232     1.0000 0.20443  0.27980  0.28145  Biso   1.000  C
  N76      1.0000 0.23378  0.31440  0.31114  Biso   1.000  N
  C233     1.0000 0.23949  0.40170  0.30586  Biso   1.000  C
  N77      1.0000 0.21899  0.45330  0.27381  Biso   1.000  N
  C234     1.0000 0.18974  0.41150  0.24746  Biso   1.000  C
  N78      1.0000 0.18055  0.32410  0.25026  Biso   1.000  N
  N79      1.0000 0.42063  0.51180  0.44271  Biso   1.000  N
  C235     1.0000 0.43530  0.46480  0.47810  Biso   1.000  C
  H157     1.0000 0.42380  0.47020  0.50330  Biso   1.000  H
  C236     1.0000 0.46680  0.40810  0.47977  Biso   1.000  C
  H158     1.0000 0.47640  0.37440  0.50560  Biso   1.000  H
  C237     1.0000 0.48415  0.40030  0.44435  Biso   1.000  C
  C238     1.0000 0.46670  0.44520  0.40620  Biso   1.000  C
  H159     1.0000 0.47630  0.43780  0.37990  Biso   1.000  H
  C239     1.0000 0.43550  0.50000  0.40750  Biso   1.000  C
  H160     1.0000 0.42400  0.53130  0.38150  Biso   1.000  H
  N80      1.0000 0.56795  0.98250  0.54776  Biso   1.000  N
  C240     1.0000 0.53696  0.03520  0.54711  Biso   1.000  C
  H161     1.0000 0.51860  0.02000  0.56480  Biso   1.000  H
  C241     1.0000 0.53077  0.11150  0.52128  Biso   1.000  C
  H162     1.0000 0.50860  0.14850  0.52160  Biso   1.000  H
  C242     1.0000 0.55685  0.13310  0.49521  Biso   1.000  C
  C243     1.0000 0.58830  0.07700  0.49480  Biso   1.000  C
  H163     1.0000 0.60650  0.08930  0.47650  Biso   1.000  H
  C244     1.0000 0.59270  0.00200  0.52200  Biso   1.000  C
  H164     1.0000 0.61430  0.96320  0.52190  Biso   1.000  H
  N81      1.0000 0.64158  0.34280  0.32120  Biso   1.000  N
  C245     1.0000 0.61020  0.39100  0.32150  Biso   1.000  C
  H165     1.0000 0.60370  0.43710  0.30020  Biso   1.000  H
  C246     1.0000 0.58630  0.37910  0.35070  Biso   1.000  C
  H166     1.0000 0.56410  0.41700  0.34950  Biso   1.000  H
  C247     1.0000 0.59387  0.31330  0.38160  Biso   1.000  C
  C248     1.0000 0.62810  0.26620  0.38340  Biso   1.000  C
  H167     1.0000 0.63570  0.22200  0.40540  Biso   1.000  H
  C249     1.0000 0.65110  0.28340  0.35340  Biso   1.000  C
  H168     1.0000 0.67500  0.25130  0.35570  Biso   1.000  H
  C250     1.0000 0.51819  0.34020  0.44384  Biso   1.000  C
  N82      1.0000 0.52346  0.27270  0.47286  Biso   1.000  N
  C251     1.0000 0.55198  0.21570  0.46736  Biso   1.000  C
  N83      1.0000 0.57520  0.22480  0.43893  Biso   1.000  N
  C252     1.0000 0.56866  0.29780  0.41328  Biso   1.000  C
  N84      1.0000 0.53939  0.35620  0.41397  Biso   1.000  N
  Zn37     1.0000 0.57978  0.87230  0.59286  Biso   1.000  Zn
  I73      1.0000 0.61693  0.76114  0.55840  Biso   1.000  I
  I74      1.0000 0.52329  0.84928  0.62794  Biso   1.000  I
  Zn38     1.0000 0.17900  0.86180  0.27910  Biso   1.000  Zn
  I75      1.0000 0.24333  0.78100  0.30710  Biso   1.000  I
  I76      1.0000 0.13430  0.83130  0.20480  Biso   1.000  I
  Zn39     1.0000 0.37810  0.60390  0.43800  Biso   1.000  Zn
  I77      1.0000 0.39510  0.73550  0.39820  Biso   1.000  I
  I78      1.0000 0.35560  0.59510  0.51160  Biso   1.000  I
  Zn40     1.0000 0.17056  0.85750  0.26787  Biso   1.000  Zn
  I79      1.0000 0.23158  0.76599  0.29182  Biso   1.000  I
  I80      1.0000 0.12595  0.84115  0.19395  Biso   1.000  I
  Zn41     1.0000 0.36926  0.59290  0.44070  Biso   1.000  Zn
  I81      1.0000 0.38625  0.74170  0.40754  Biso   1.000  I
  I82      1.0000 0.34855  0.58770  0.51120  Biso   1.000  I
  Zn42     1.0000 0.58670  0.88770  0.59140  Biso   1.000  Zn
  I83      1.0000 0.62830  0.77210  0.55643  Biso   1.000  I
  I84      1.0000 0.52430  0.84610  0.62030  Biso   1.000  I
  N85      1.0000 0.68563  0.49730  0.27752  Biso   1.000  N
  C253     1.0000 0.71540  0.53140  0.30560  Biso   1.000  C
  H169     1.0000 0.73270  0.49210  0.32420  Biso   1.000  H
  C254     1.0000 0.72216  0.62340  0.30890  Biso   1.000  C
  H170     1.0000 0.74360  0.64610  0.32990  Biso   1.000  H
  C255     1.0000 0.69807  0.68100  0.28203  Biso   1.000  C
  C256     1.0000 0.66650  0.64380  0.25230  Biso   1.000  C
  H171     1.0000 0.64890  0.68130  0.23300  Biso   1.000  H
  C257     1.0000 0.66140  0.55170  0.25160  Biso   1.000  C
  H172     1.0000 0.63970  0.52670  0.23170  Biso   1.000  H
  N86      1.0000 0.83093  0.03420  0.39440  Biso   1.000  N
  C258     1.0000 0.82331  0.94790  0.39983  Biso   1.000  C
  H173     1.0000 0.83860  0.91660  0.42390  Biso   1.000  H
  C259     1.0000 0.79391  0.90160  0.37176  Biso   1.000  C
  H174     1.0000 0.78930  0.83990  0.37650  Biso   1.000  H
  C260     1.0000 0.77152  0.94710  0.33684  Biso   1.000  C
  C261     1.0000 0.77970  0.03730  0.33140  Biso   1.000  C
  H175     1.0000 0.76490  0.07040  0.30770  Biso   1.000  H
  C262     1.0000 0.80916  0.07780  0.36036  Biso   1.000  C
  H176     1.0000 0.81450  0.13940  0.35620  Biso   1.000  H
  N87      1.0000 0.62044  0.05540  0.14118  Biso   1.000  N
  C263     1.0000 0.61400  0.96930  0.14850  Biso   1.000  C
  H177     1.0000 0.59280  0.94010  0.12980  Biso   1.000  H
  C264     1.0000 0.63630  0.92030  0.18160  Biso   1.000  C
  H178     1.0000 0.63140  0.85810  0.18470  Biso   1.000  H
  C265     1.0000 0.66599  0.96300  0.21063  Biso   1.000  C
  C266     1.0000 0.67252  0.05240  0.20364  Biso   1.000  C
  H179     1.0000 0.69280  0.08400  0.22270  Biso   1.000  H
  C267     1.0000 0.64924  0.09580  0.16850  Biso   1.000  C
  H180     1.0000 0.65420  0.15740  0.16380  Biso   1.000  H
  C268     1.0000 0.70443  0.77980  0.28145  Biso   1.000  C
  N88      1.0000 0.73378  0.81440  0.31114  Biso   1.000  N
  C269     1.0000 0.73949  0.90170  0.30586  Biso   1.000  C
  N89      1.0000 0.71899  0.95330  0.27381  Biso   1.000  N
  C270     1.0000 0.68974  0.91150  0.24746  Biso   1.000  C
  N90      1.0000 0.68055  0.82410  0.25026  Biso   1.000  N
  N91      1.0000 0.92063  0.01180  0.44271  Biso   1.000  N
  C271     1.0000 0.93530  0.96480  0.47810  Biso   1.000  C
  H181     1.0000 0.92380  0.97020  0.50330  Biso   1.000  H
  C272     1.0000 0.96680  0.90810  0.47977  Biso   1.000  C
  H182     1.0000 0.97640  0.87440  0.50560  Biso   1.000  H
  C273     1.0000 0.98415  0.90030  0.44435  Biso   1.000  C
  C274     1.0000 0.96670  0.94520  0.40620  Biso   1.000  C
  H183     1.0000 0.97630  0.93780  0.37990  Biso   1.000  H
  C275     1.0000 0.93550  0.00000  0.40750  Biso   1.000  C
  H184     1.0000 0.92400  0.03130  0.38150  Biso   1.000  H
  N92      1.0000 0.06795  0.48250  0.54776  Biso   1.000  N
  C276     1.0000 0.03696  0.53520  0.54711  Biso   1.000  C
  H185     1.0000 0.01860  0.52000  0.56480  Biso   1.000  H
  C277     1.0000 0.03077  0.61150  0.52128  Biso   1.000  C
  H186     1.0000 0.00860  0.64850  0.52160  Biso   1.000  H
  C278     1.0000 0.05685  0.63310  0.49521  Biso   1.000  C
  C279     1.0000 0.08830  0.57700  0.49480  Biso   1.000  C
  H187     1.0000 0.10650  0.58930  0.47650  Biso   1.000  H
  C280     1.0000 0.09270  0.50200  0.52200  Biso   1.000  C
  H188     1.0000 0.11430  0.46320  0.52190  Biso   1.000  H
  N93      1.0000 0.14158  0.84280  0.32120  Biso   1.000  N
  C281     1.0000 0.11020  0.89100  0.32150  Biso   1.000  C
  H189     1.0000 0.10370  0.93710  0.30020  Biso   1.000  H
  C282     1.0000 0.08630  0.87910  0.35070  Biso   1.000  C
  H190     1.0000 0.06410  0.91700  0.34950  Biso   1.000  H
  C283     1.0000 0.09387  0.81330  0.38160  Biso   1.000  C
  C284     1.0000 0.12810  0.76620  0.38340  Biso   1.000  C
  H191     1.0000 0.13570  0.72200  0.40540  Biso   1.000  H
  C285     1.0000 0.15110  0.78340  0.35340  Biso   1.000  C
  H192     1.0000 0.17500  0.75130  0.35570  Biso   1.000  H
  C286     1.0000 0.01819  0.84020  0.44384  Biso   1.000  C
  N94      1.0000 0.02346  0.77270  0.47286  Biso   1.000  N
  C287     1.0000 0.05198  0.71570  0.46736  Biso   1.000  C
  N95      1.0000 0.07520  0.72480  0.43893  Biso   1.000  N
  C288     1.0000 0.06866  0.79780  0.41328  Biso   1.000  C
  N96      1.0000 0.03939  0.85620  0.41397  Biso   1.000  N
  Zn43     1.0000 0.07978  0.37230  0.59286  Biso   1.000  Zn
  I85      1.0000 0.11693  0.26114  0.55840  Biso   1.000  I
  I86      1.0000 0.02329  0.34928  0.62794  Biso   1.000  I
  Zn44     1.0000 0.67900  0.36180  0.27910  Biso   1.000  Zn
  I87      1.0000 0.74333  0.28100  0.30710  Biso   1.000  I
  I88      1.0000 0.63430  0.33130  0.20480  Biso   1.000  I
  Zn45     1.0000 0.87810  0.10390  0.43800  Biso   1.000  Zn
  I89      1.0000 0.89510  0.23550  0.39820  Biso   1.000  I
  I90      1.0000 0.85560  0.09510  0.51160  Biso   1.000  I
  Zn46     1.0000 0.67056  0.35750  0.26787  Biso   1.000  Zn
  I91      1.0000 0.73158  0.26599  0.29182  Biso   1.000  I
  I92      1.0000 0.62595  0.34115  0.19395  Biso   1.000  I
  Zn47     1.0000 0.86926  0.09290  0.44070  Biso   1.000  Zn
  I93      1.0000 0.88625  0.24170  0.40754  Biso   1.000  I
  I94      1.0000 0.84855  0.08770  0.51120  Biso   1.000  I
  Zn48     1.0000 0.08670  0.38770  0.59140  Biso   1.000  Zn
  I95      1.0000 0.12830  0.27210  0.55643  Biso   1.000  I
  I96      1.0000 0.02430  0.34610  0.62030  Biso   1.000  I
