data_image0
_cell_length_a       49.112
_cell_length_b       49.112
_cell_length_c       49.112
_cell_angle_alpha    90
_cell_angle_beta     90
_cell_angle_gamma    90

_symmetry_space_group_name_H-M    "P 1"
_symmetry_int_tables_number       1

loop_
  _symmetry_equiv_pos_as_xyz
  'x, y, z'

loop_
  _atom_site_label
  _atom_site_occupancy
  _atom_site_fract_x
  _atom_site_fract_y
  _atom_site_fract_z
  _atom_site_thermal_displace_type
  _atom_site_B_iso_or_equiv
  _atom_site_type_symbol
  O1       1.0000 0.13383  0.40325  0.97304  Biso   1.000  O
  O2       1.0000 0.16941  0.36868  0.97214  Biso   1.000  O
  C1       1.0000 0.15494  0.39357  0.96534  Biso   1.000  C
  C2       1.0000 0.17339  0.40730  0.94429  Biso   1.000  C
  C3       1.0000 0.19807  0.39941  0.93518  Biso   1.000  C
  H1       1.0000 0.20800  0.38600  0.94510  Biso   1.000  H
  C4       1.0000 0.27747  0.37491  0.85153  Biso   1.000  C
  H2       1.0000 0.26150  0.37920  0.84120  Biso   1.000  H
  C5       1.0000 0.30113  0.36359  0.84070  Biso   1.000  C
  H3       1.0000 0.30240  0.35910  0.82170  Biso   1.000  H
  C6       1.0000 0.32690  0.36291  0.88760  Biso   1.000  C
  H4       1.0000 0.34310  0.35840  0.89770  Biso   1.000  H
  C7       1.0000 0.30190  0.37484  0.89780  Biso   1.000  C
  H5       1.0000 0.30030  0.37920  0.91680  Biso   1.000  H
  O3       1.0000 0.13383  0.90325  0.47304  Biso   1.000  O
  O4       1.0000 0.16941  0.86868  0.47214  Biso   1.000  O
  C8       1.0000 0.15494  0.89357  0.46534  Biso   1.000  C
  C9       1.0000 0.17339  0.90730  0.44429  Biso   1.000  C
  C10      1.0000 0.19807  0.89941  0.43518  Biso   1.000  C
  H6       1.0000 0.20800  0.88600  0.44510  Biso   1.000  H
  C11      1.0000 0.27747  0.87491  0.35153  Biso   1.000  C
  H7       1.0000 0.26150  0.87920  0.34120  Biso   1.000  H
  C12      1.0000 0.30113  0.86359  0.34070  Biso   1.000  C
  H8       1.0000 0.30240  0.85910  0.32170  Biso   1.000  H
  C13      1.0000 0.32690  0.86291  0.38760  Biso   1.000  C
  H9       1.0000 0.34310  0.85840  0.39770  Biso   1.000  H
  C14      1.0000 0.30190  0.87484  0.39780  Biso   1.000  C
  H10      1.0000 0.30030  0.87920  0.41680  Biso   1.000  H
  O5       1.0000 0.63383  0.40325  0.47304  Biso   1.000  O
  O6       1.0000 0.66941  0.36868  0.47214  Biso   1.000  O
  C15      1.0000 0.65494  0.39357  0.46534  Biso   1.000  C
  C16      1.0000 0.67339  0.40730  0.44429  Biso   1.000  C
  C17      1.0000 0.69807  0.39941  0.43518  Biso   1.000  C
  H11      1.0000 0.70800  0.38600  0.44510  Biso   1.000  H
  C18      1.0000 0.77747  0.37491  0.35153  Biso   1.000  C
  H12      1.0000 0.76150  0.37920  0.34120  Biso   1.000  H
  C19      1.0000 0.80113  0.36359  0.34070  Biso   1.000  C
  H13      1.0000 0.80240  0.35910  0.32170  Biso   1.000  H
  C20      1.0000 0.82690  0.36291  0.38760  Biso   1.000  C
  H14      1.0000 0.84310  0.35840  0.39770  Biso   1.000  H
  C21      1.0000 0.80190  0.37484  0.39780  Biso   1.000  C
  H15      1.0000 0.80030  0.37920  0.41680  Biso   1.000  H
  O7       1.0000 0.63383  0.90325  0.97304  Biso   1.000  O
  O8       1.0000 0.66941  0.86868  0.97214  Biso   1.000  O
  C22      1.0000 0.65494  0.89357  0.96534  Biso   1.000  C
  C23      1.0000 0.67339  0.90730  0.94429  Biso   1.000  C
  C24      1.0000 0.69807  0.89941  0.93518  Biso   1.000  C
  H16      1.0000 0.70800  0.88600  0.94510  Biso   1.000  H
  C25      1.0000 0.77747  0.87491  0.85153  Biso   1.000  C
  H17      1.0000 0.76150  0.87920  0.84120  Biso   1.000  H
  C26      1.0000 0.80113  0.86359  0.84070  Biso   1.000  C
  H18      1.0000 0.80240  0.85910  0.82170  Biso   1.000  H
  C27      1.0000 0.82690  0.86291  0.88760  Biso   1.000  C
  H19      1.0000 0.84310  0.85840  0.89770  Biso   1.000  H
  C28      1.0000 0.80190  0.87484  0.89780  Biso   1.000  C
  H20      1.0000 0.80030  0.87920  0.91680  Biso   1.000  H
  O9       1.0000 0.86617  0.59675  0.97304  Biso   1.000  O
  O10      1.0000 0.83059  0.63132  0.97214  Biso   1.000  O
  C29      1.0000 0.84506  0.60643  0.96534  Biso   1.000  C
  C30      1.0000 0.82661  0.59270  0.94429  Biso   1.000  C
  C31      1.0000 0.80193  0.60059  0.93518  Biso   1.000  C
  H21      1.0000 0.79200  0.61400  0.94510  Biso   1.000  H
  C32      1.0000 0.72253  0.62509  0.85153  Biso   1.000  C
  H22      1.0000 0.73850  0.62080  0.84120  Biso   1.000  H
  C33      1.0000 0.69887  0.63641  0.84070  Biso   1.000  C
  H23      1.0000 0.69760  0.64090  0.82170  Biso   1.000  H
  C34      1.0000 0.67310  0.63709  0.88760  Biso   1.000  C
  H24      1.0000 0.65690  0.64160  0.89770  Biso   1.000  H
  C35      1.0000 0.69810  0.62516  0.89780  Biso   1.000  C
  H25      1.0000 0.69970  0.62080  0.91680  Biso   1.000  H
  O11      1.0000 0.86617  0.09675  0.47304  Biso   1.000  O
  O12      1.0000 0.83059  0.13132  0.47214  Biso   1.000  O
  C36      1.0000 0.84506  0.10643  0.46534  Biso   1.000  C
  C37      1.0000 0.82661  0.09270  0.44429  Biso   1.000  C
  C38      1.0000 0.80193  0.10059  0.43518  Biso   1.000  C
  H26      1.0000 0.79200  0.11400  0.44510  Biso   1.000  H
  C39      1.0000 0.72253  0.12509  0.35153  Biso   1.000  C
  H27      1.0000 0.73850  0.12080  0.34120  Biso   1.000  H
  C40      1.0000 0.69887  0.13641  0.34070  Biso   1.000  C
  H28      1.0000 0.69760  0.14090  0.32170  Biso   1.000  H
  C41      1.0000 0.67310  0.13709  0.38760  Biso   1.000  C
  H29      1.0000 0.65690  0.14160  0.39770  Biso   1.000  H
  C42      1.0000 0.69810  0.12516  0.39780  Biso   1.000  C
  H30      1.0000 0.69970  0.12080  0.41680  Biso   1.000  H
  O13      1.0000 0.36617  0.59675  0.47304  Biso   1.000  O
  O14      1.0000 0.33059  0.63132  0.47214  Biso   1.000  O
  C43      1.0000 0.34506  0.60643  0.46534  Biso   1.000  C
  C44      1.0000 0.32661  0.59270  0.44429  Biso   1.000  C
  C45      1.0000 0.30193  0.60059  0.43518  Biso   1.000  C
  H31      1.0000 0.29200  0.61400  0.44510  Biso   1.000  H
  C46      1.0000 0.22253  0.62509  0.35153  Biso   1.000  C
  H32      1.0000 0.23850  0.62080  0.34120  Biso   1.000  H
  C47      1.0000 0.19887  0.63641  0.34070  Biso   1.000  C
  H33      1.0000 0.19760  0.64090  0.32170  Biso   1.000  H
  C48      1.0000 0.17310  0.63709  0.38760  Biso   1.000  C
  H34      1.0000 0.15690  0.64160  0.39770  Biso   1.000  H
  C49      1.0000 0.19810  0.62516  0.39780  Biso   1.000  C
  H35      1.0000 0.19970  0.62080  0.41680  Biso   1.000  H
  O15      1.0000 0.36617  0.09675  0.97304  Biso   1.000  O
  O16      1.0000 0.33059  0.13132  0.97214  Biso   1.000  O
  C50      1.0000 0.34506  0.10643  0.96534  Biso   1.000  C
  C51      1.0000 0.32661  0.09270  0.94429  Biso   1.000  C
  C52      1.0000 0.30193  0.10059  0.93518  Biso   1.000  C
  H36      1.0000 0.29200  0.11400  0.94510  Biso   1.000  H
  C53      1.0000 0.22253  0.12509  0.85153  Biso   1.000  C
  H37      1.0000 0.23850  0.12080  0.84120  Biso   1.000  H
  C54      1.0000 0.19887  0.13641  0.84070  Biso   1.000  C
  H38      1.0000 0.19760  0.14090  0.82170  Biso   1.000  H
  C55      1.0000 0.17310  0.13709  0.88760  Biso   1.000  C
  H39      1.0000 0.15690  0.14160  0.89770  Biso   1.000  H
  C56      1.0000 0.19810  0.12516  0.89780  Biso   1.000  C
  H40      1.0000 0.19970  0.12080  0.91680  Biso   1.000  H
  O17      1.0000 0.86617  0.40325  0.02696  Biso   1.000  O
  O18      1.0000 0.83059  0.36868  0.02786  Biso   1.000  O
  C57      1.0000 0.84506  0.39357  0.03466  Biso   1.000  C
  C58      1.0000 0.82661  0.40730  0.05571  Biso   1.000  C
  C59      1.0000 0.80193  0.39941  0.06482  Biso   1.000  C
  H41      1.0000 0.79200  0.38600  0.05490  Biso   1.000  H
  C60      1.0000 0.72253  0.37491  0.14847  Biso   1.000  C
  H42      1.0000 0.73850  0.37920  0.15880  Biso   1.000  H
  C61      1.0000 0.69887  0.36359  0.15930  Biso   1.000  C
  H43      1.0000 0.69760  0.35910  0.17830  Biso   1.000  H
  C62      1.0000 0.67310  0.36291  0.11240  Biso   1.000  C
  H44      1.0000 0.65690  0.35840  0.10230  Biso   1.000  H
  C63      1.0000 0.69810  0.37484  0.10220  Biso   1.000  C
  H45      1.0000 0.69970  0.37920  0.08320  Biso   1.000  H
  O19      1.0000 0.86617  0.90325  0.52696  Biso   1.000  O
  O20      1.0000 0.83059  0.86868  0.52786  Biso   1.000  O
  C64      1.0000 0.84506  0.89357  0.53466  Biso   1.000  C
  C65      1.0000 0.82661  0.90730  0.55571  Biso   1.000  C
  C66      1.0000 0.80193  0.89941  0.56482  Biso   1.000  C
  H46      1.0000 0.79200  0.88600  0.55490  Biso   1.000  H
  C67      1.0000 0.72253  0.87491  0.64847  Biso   1.000  C
  H47      1.0000 0.73850  0.87920  0.65880  Biso   1.000  H
  C68      1.0000 0.69887  0.86359  0.65930  Biso   1.000  C
  H48      1.0000 0.69760  0.85910  0.67830  Biso   1.000  H
  C69      1.0000 0.67310  0.86291  0.61240  Biso   1.000  C
  H49      1.0000 0.65690  0.85840  0.60230  Biso   1.000  H
  C70      1.0000 0.69810  0.87484  0.60220  Biso   1.000  C
  H50      1.0000 0.69970  0.87920  0.58320  Biso   1.000  H
  O21      1.0000 0.36617  0.40325  0.52696  Biso   1.000  O
  O22      1.0000 0.33059  0.36868  0.52786  Biso   1.000  O
  C71      1.0000 0.34506  0.39357  0.53466  Biso   1.000  C
  C72      1.0000 0.32661  0.40730  0.55571  Biso   1.000  C
  C73      1.0000 0.30193  0.39941  0.56482  Biso   1.000  C
  H51      1.0000 0.29200  0.38600  0.55490  Biso   1.000  H
  C74      1.0000 0.22253  0.37491  0.64847  Biso   1.000  C
  H52      1.0000 0.23850  0.37920  0.65880  Biso   1.000  H
  C75      1.0000 0.19887  0.36359  0.65930  Biso   1.000  C
  H53      1.0000 0.19760  0.35910  0.67830  Biso   1.000  H
  C76      1.0000 0.17310  0.36291  0.61240  Biso   1.000  C
  H54      1.0000 0.15690  0.35840  0.60230  Biso   1.000  H
  C77      1.0000 0.19810  0.37484  0.60220  Biso   1.000  C
  H55      1.0000 0.19970  0.37920  0.58320  Biso   1.000  H
  O23      1.0000 0.36617  0.90325  0.02696  Biso   1.000  O
  O24      1.0000 0.33059  0.86868  0.02786  Biso   1.000  O
  C78      1.0000 0.34506  0.89357  0.03466  Biso   1.000  C
  C79      1.0000 0.32661  0.90730  0.05571  Biso   1.000  C
  C80      1.0000 0.30193  0.89941  0.06482  Biso   1.000  C
  H56      1.0000 0.29200  0.88600  0.05490  Biso   1.000  H
  C81      1.0000 0.22253  0.87491  0.14847  Biso   1.000  C
  H57      1.0000 0.23850  0.87920  0.15880  Biso   1.000  H
  C82      1.0000 0.19887  0.86359  0.15930  Biso   1.000  C
  H58      1.0000 0.19760  0.85910  0.17830  Biso   1.000  H
  C83      1.0000 0.17310  0.86291  0.11240  Biso   1.000  C
  H59      1.0000 0.15690  0.85840  0.10230  Biso   1.000  H
  C84      1.0000 0.19810  0.87484  0.10220  Biso   1.000  C
  H60      1.0000 0.19970  0.87920  0.08320  Biso   1.000  H
  O25      1.0000 0.13383  0.59675  0.02696  Biso   1.000  O
  O26      1.0000 0.16941  0.63132  0.02786  Biso   1.000  O
  C85      1.0000 0.15494  0.60643  0.03466  Biso   1.000  C
  C86      1.0000 0.17339  0.59270  0.05571  Biso   1.000  C
  C87      1.0000 0.19807  0.60059  0.06482  Biso   1.000  C
  H61      1.0000 0.20800  0.61400  0.05490  Biso   1.000  H
  C88      1.0000 0.27747  0.62509  0.14847  Biso   1.000  C
  H62      1.0000 0.26150  0.62080  0.15880  Biso   1.000  H
  C89      1.0000 0.30113  0.63641  0.15930  Biso   1.000  C
  H63      1.0000 0.30240  0.64090  0.17830  Biso   1.000  H
  C90      1.0000 0.32690  0.63709  0.11240  Biso   1.000  C
  H64      1.0000 0.34310  0.64160  0.10230  Biso   1.000  H
  C91      1.0000 0.30190  0.62516  0.10220  Biso   1.000  C
  H65      1.0000 0.30030  0.62080  0.08320  Biso   1.000  H
  O27      1.0000 0.13383  0.09675  0.52696  Biso   1.000  O
  O28      1.0000 0.16941  0.13132  0.52786  Biso   1.000  O
  C92      1.0000 0.15494  0.10643  0.53466  Biso   1.000  C
  C93      1.0000 0.17339  0.09270  0.55571  Biso   1.000  C
  C94      1.0000 0.19807  0.10059  0.56482  Biso   1.000  C
  H66      1.0000 0.20800  0.11400  0.55490  Biso   1.000  H
  C95      1.0000 0.27747  0.12509  0.64847  Biso   1.000  C
  H67      1.0000 0.26150  0.12080  0.65880  Biso   1.000  H
  C96      1.0000 0.30113  0.13641  0.65930  Biso   1.000  C
  H68      1.0000 0.30240  0.14090  0.67830  Biso   1.000  H
  C97      1.0000 0.32690  0.13709  0.61240  Biso   1.000  C
  H69      1.0000 0.34310  0.14160  0.60230  Biso   1.000  H
  C98      1.0000 0.30190  0.12516  0.60220  Biso   1.000  C
  H70      1.0000 0.30030  0.12080  0.58320  Biso   1.000  H
  O29      1.0000 0.63383  0.59675  0.52696  Biso   1.000  O
  O30      1.0000 0.66941  0.63132  0.52786  Biso   1.000  O
  C99      1.0000 0.65494  0.60643  0.53466  Biso   1.000  C
  C100     1.0000 0.67339  0.59270  0.55571  Biso   1.000  C
  C101     1.0000 0.69807  0.60059  0.56482  Biso   1.000  C
  H71      1.0000 0.70800  0.61400  0.55490  Biso   1.000  H
  C102     1.0000 0.77747  0.62509  0.64847  Biso   1.000  C
  H72      1.0000 0.76150  0.62080  0.65880  Biso   1.000  H
  C103     1.0000 0.80113  0.63641  0.65930  Biso   1.000  C
  H73      1.0000 0.80240  0.64090  0.67830  Biso   1.000  H
  C104     1.0000 0.82690  0.63709  0.61240  Biso   1.000  C
  H74      1.0000 0.84310  0.64160  0.60230  Biso   1.000  H
  C105     1.0000 0.80190  0.62516  0.60220  Biso   1.000  C
  H75      1.0000 0.80030  0.62080  0.58320  Biso   1.000  H
  O31      1.0000 0.63383  0.09675  0.02696  Biso   1.000  O
  O32      1.0000 0.66941  0.13132  0.02786  Biso   1.000  O
  C106     1.0000 0.65494  0.10643  0.03466  Biso   1.000  C
  C107     1.0000 0.67339  0.09270  0.05571  Biso   1.000  C
  C108     1.0000 0.69807  0.10059  0.06482  Biso   1.000  C
  H76      1.0000 0.70800  0.11400  0.05490  Biso   1.000  H
  C109     1.0000 0.77747  0.12509  0.14847  Biso   1.000  C
  H77      1.0000 0.76150  0.12080  0.15880  Biso   1.000  H
  C110     1.0000 0.80113  0.13641  0.15930  Biso   1.000  C
  H78      1.0000 0.80240  0.14090  0.17830  Biso   1.000  H
  C111     1.0000 0.82690  0.13709  0.11240  Biso   1.000  C
  H79      1.0000 0.84310  0.14160  0.10230  Biso   1.000  H
  C112     1.0000 0.80190  0.12516  0.10220  Biso   1.000  C
  H80      1.0000 0.80030  0.12080  0.08320  Biso   1.000  H
  O33      1.0000 0.97304  0.13383  0.40325  Biso   1.000  O
  O34      1.0000 0.97214  0.16941  0.36868  Biso   1.000  O
  C113     1.0000 0.96534  0.15494  0.39357  Biso   1.000  C
  C114     1.0000 0.94429  0.17339  0.40730  Biso   1.000  C
  C115     1.0000 0.93518  0.19807  0.39941  Biso   1.000  C
  H81      1.0000 0.94510  0.20800  0.38600  Biso   1.000  H
  C116     1.0000 0.85153  0.27747  0.37491  Biso   1.000  C
  H82      1.0000 0.84120  0.26150  0.37920  Biso   1.000  H
  C117     1.0000 0.84070  0.30113  0.36359  Biso   1.000  C
  H83      1.0000 0.82170  0.30240  0.35910  Biso   1.000  H
  C118     1.0000 0.88760  0.32690  0.36291  Biso   1.000  C
  H84      1.0000 0.89770  0.34310  0.35840  Biso   1.000  H
  C119     1.0000 0.89780  0.30190  0.37484  Biso   1.000  C
  H85      1.0000 0.91680  0.30030  0.37920  Biso   1.000  H
  O35      1.0000 0.97304  0.63383  0.90325  Biso   1.000  O
  O36      1.0000 0.97214  0.66941  0.86868  Biso   1.000  O
  C120     1.0000 0.96534  0.65494  0.89357  Biso   1.000  C
  C121     1.0000 0.94429  0.67339  0.90730  Biso   1.000  C
  C122     1.0000 0.93518  0.69807  0.89941  Biso   1.000  C
  H86      1.0000 0.94510  0.70800  0.88600  Biso   1.000  H
  C123     1.0000 0.85153  0.77747  0.87491  Biso   1.000  C
  H87      1.0000 0.84120  0.76150  0.87920  Biso   1.000  H
  C124     1.0000 0.84070  0.80113  0.86359  Biso   1.000  C
  H88      1.0000 0.82170  0.80240  0.85910  Biso   1.000  H
  C125     1.0000 0.88760  0.82690  0.86291  Biso   1.000  C
  H89      1.0000 0.89770  0.84310  0.85840  Biso   1.000  H
  C126     1.0000 0.89780  0.80190  0.87484  Biso   1.000  C
  H90      1.0000 0.91680  0.80030  0.87920  Biso   1.000  H
  O37      1.0000 0.47304  0.13383  0.90325  Biso   1.000  O
  O38      1.0000 0.47214  0.16941  0.86868  Biso   1.000  O
  C127     1.0000 0.46534  0.15494  0.89357  Biso   1.000  C
  C128     1.0000 0.44429  0.17339  0.90730  Biso   1.000  C
  C129     1.0000 0.43518  0.19807  0.89941  Biso   1.000  C
  H91      1.0000 0.44510  0.20800  0.88600  Biso   1.000  H
  C130     1.0000 0.35153  0.27747  0.87491  Biso   1.000  C
  H92      1.0000 0.34120  0.26150  0.87920  Biso   1.000  H
  C131     1.0000 0.34070  0.30113  0.86359  Biso   1.000  C
  H93      1.0000 0.32170  0.30240  0.85910  Biso   1.000  H
  C132     1.0000 0.38760  0.32690  0.86291  Biso   1.000  C
  H94      1.0000 0.39770  0.34310  0.85840  Biso   1.000  H
  C133     1.0000 0.39780  0.30190  0.87484  Biso   1.000  C
  H95      1.0000 0.41680  0.30030  0.87920  Biso   1.000  H
  O39      1.0000 0.47304  0.63383  0.40325  Biso   1.000  O
  O40      1.0000 0.47214  0.66941  0.36868  Biso   1.000  O
  C134     1.0000 0.46534  0.65494  0.39357  Biso   1.000  C
  C135     1.0000 0.44429  0.67339  0.40730  Biso   1.000  C
  C136     1.0000 0.43518  0.69807  0.39941  Biso   1.000  C
  H96      1.0000 0.44510  0.70800  0.38600  Biso   1.000  H
  C137     1.0000 0.35153  0.77747  0.37491  Biso   1.000  C
  H97      1.0000 0.34120  0.76150  0.37920  Biso   1.000  H
  C138     1.0000 0.34070  0.80113  0.36359  Biso   1.000  C
  H98      1.0000 0.32170  0.80240  0.35910  Biso   1.000  H
  C139     1.0000 0.38760  0.82690  0.36291  Biso   1.000  C
  H99      1.0000 0.39770  0.84310  0.35840  Biso   1.000  H
  C140     1.0000 0.39780  0.80190  0.37484  Biso   1.000  C
  H100     1.0000 0.41680  0.80030  0.37920  Biso   1.000  H
  O41      1.0000 0.97304  0.86617  0.59675  Biso   1.000  O
  O42      1.0000 0.97214  0.83059  0.63132  Biso   1.000  O
  C141     1.0000 0.96534  0.84506  0.60643  Biso   1.000  C
  C142     1.0000 0.94429  0.82661  0.59270  Biso   1.000  C
  C143     1.0000 0.93518  0.80193  0.60059  Biso   1.000  C
  H101     1.0000 0.94510  0.79200  0.61400  Biso   1.000  H
  C144     1.0000 0.85153  0.72253  0.62509  Biso   1.000  C
  H102     1.0000 0.84120  0.73850  0.62080  Biso   1.000  H
  C145     1.0000 0.84070  0.69887  0.63641  Biso   1.000  C
  H103     1.0000 0.82170  0.69760  0.64090  Biso   1.000  H
  C146     1.0000 0.88760  0.67310  0.63709  Biso   1.000  C
  H104     1.0000 0.89770  0.65690  0.64160  Biso   1.000  H
  C147     1.0000 0.89780  0.69810  0.62516  Biso   1.000  C
  H105     1.0000 0.91680  0.69970  0.62080  Biso   1.000  H
  O43      1.0000 0.97304  0.36617  0.09675  Biso   1.000  O
  O44      1.0000 0.97214  0.33059  0.13132  Biso   1.000  O
  C148     1.0000 0.96534  0.34506  0.10643  Biso   1.000  C
  C149     1.0000 0.94429  0.32661  0.09270  Biso   1.000  C
  C150     1.0000 0.93518  0.30193  0.10059  Biso   1.000  C
  H106     1.0000 0.94510  0.29200  0.11400  Biso   1.000  H
  C151     1.0000 0.85153  0.22253  0.12509  Biso   1.000  C
  H107     1.0000 0.84120  0.23850  0.12080  Biso   1.000  H
  C152     1.0000 0.84070  0.19887  0.13641  Biso   1.000  C
  H108     1.0000 0.82170  0.19760  0.14090  Biso   1.000  H
  C153     1.0000 0.88760  0.17310  0.13709  Biso   1.000  C
  H109     1.0000 0.89770  0.15690  0.14160  Biso   1.000  H
  C154     1.0000 0.89780  0.19810  0.12516  Biso   1.000  C
  H110     1.0000 0.91680  0.19970  0.12080  Biso   1.000  H
  O45      1.0000 0.47304  0.86617  0.09675  Biso   1.000  O
  O46      1.0000 0.47214  0.83059  0.13132  Biso   1.000  O
  C155     1.0000 0.46534  0.84506  0.10643  Biso   1.000  C
  C156     1.0000 0.44429  0.82661  0.09270  Biso   1.000  C
  C157     1.0000 0.43518  0.80193  0.10059  Biso   1.000  C
  H111     1.0000 0.44510  0.79200  0.11400  Biso   1.000  H
  C158     1.0000 0.35153  0.72253  0.12509  Biso   1.000  C
  H112     1.0000 0.34120  0.73850  0.12080  Biso   1.000  H
  C159     1.0000 0.34070  0.69887  0.13641  Biso   1.000  C
  H113     1.0000 0.32170  0.69760  0.14090  Biso   1.000  H
  C160     1.0000 0.38760  0.67310  0.13709  Biso   1.000  C
  H114     1.0000 0.39770  0.65690  0.14160  Biso   1.000  H
  C161     1.0000 0.39780  0.69810  0.12516  Biso   1.000  C
  H115     1.0000 0.41680  0.69970  0.12080  Biso   1.000  H
  O47      1.0000 0.47304  0.36617  0.59675  Biso   1.000  O
  O48      1.0000 0.47214  0.33059  0.63132  Biso   1.000  O
  C162     1.0000 0.46534  0.34506  0.60643  Biso   1.000  C
  C163     1.0000 0.44429  0.32661  0.59270  Biso   1.000  C
  C164     1.0000 0.43518  0.30193  0.60059  Biso   1.000  C
  H116     1.0000 0.44510  0.29200  0.61400  Biso   1.000  H
  C165     1.0000 0.35153  0.22253  0.62509  Biso   1.000  C
  H117     1.0000 0.34120  0.23850  0.62080  Biso   1.000  H
  C166     1.0000 0.34070  0.19887  0.63641  Biso   1.000  C
  H118     1.0000 0.32170  0.19760  0.64090  Biso   1.000  H
  C167     1.0000 0.38760  0.17310  0.63709  Biso   1.000  C
  H119     1.0000 0.39770  0.15690  0.64160  Biso   1.000  H
  C168     1.0000 0.39780  0.19810  0.62516  Biso   1.000  C
  H120     1.0000 0.41680  0.19970  0.62080  Biso   1.000  H
  O49      1.0000 0.02696  0.86617  0.40325  Biso   1.000  O
  O50      1.0000 0.02786  0.83059  0.36868  Biso   1.000  O
  C169     1.0000 0.03466  0.84506  0.39357  Biso   1.000  C
  C170     1.0000 0.05571  0.82661  0.40730  Biso   1.000  C
  C171     1.0000 0.06482  0.80193  0.39941  Biso   1.000  C
  H121     1.0000 0.05490  0.79200  0.38600  Biso   1.000  H
  C172     1.0000 0.14847  0.72253  0.37491  Biso   1.000  C
  H122     1.0000 0.15880  0.73850  0.37920  Biso   1.000  H
  C173     1.0000 0.15930  0.69887  0.36359  Biso   1.000  C
  H123     1.0000 0.17830  0.69760  0.35910  Biso   1.000  H
  C174     1.0000 0.11240  0.67310  0.36291  Biso   1.000  C
  H124     1.0000 0.10230  0.65690  0.35840  Biso   1.000  H
  C175     1.0000 0.10220  0.69810  0.37484  Biso   1.000  C
  H125     1.0000 0.08320  0.69970  0.37920  Biso   1.000  H
  O51      1.0000 0.02696  0.36617  0.90325  Biso   1.000  O
  O52      1.0000 0.02786  0.33059  0.86868  Biso   1.000  O
  C176     1.0000 0.03466  0.34506  0.89357  Biso   1.000  C
  C177     1.0000 0.05571  0.32661  0.90730  Biso   1.000  C
  C178     1.0000 0.06482  0.30193  0.89941  Biso   1.000  C
  H126     1.0000 0.05490  0.29200  0.88600  Biso   1.000  H
  C179     1.0000 0.14847  0.22253  0.87491  Biso   1.000  C
  H127     1.0000 0.15880  0.23850  0.87920  Biso   1.000  H
  C180     1.0000 0.15930  0.19887  0.86359  Biso   1.000  C
  H128     1.0000 0.17830  0.19760  0.85910  Biso   1.000  H
  C181     1.0000 0.11240  0.17310  0.86291  Biso   1.000  C
  H129     1.0000 0.10230  0.15690  0.85840  Biso   1.000  H
  C182     1.0000 0.10220  0.19810  0.87484  Biso   1.000  C
  H130     1.0000 0.08320  0.19970  0.87920  Biso   1.000  H
  O53      1.0000 0.52696  0.86617  0.90325  Biso   1.000  O
  O54      1.0000 0.52786  0.83059  0.86868  Biso   1.000  O
  C183     1.0000 0.53466  0.84506  0.89357  Biso   1.000  C
  C184     1.0000 0.55571  0.82661  0.90730  Biso   1.000  C
  C185     1.0000 0.56482  0.80193  0.89941  Biso   1.000  C
  H131     1.0000 0.55490  0.79200  0.88600  Biso   1.000  H
  C186     1.0000 0.64847  0.72253  0.87491  Biso   1.000  C
  H132     1.0000 0.65880  0.73850  0.87920  Biso   1.000  H
  C187     1.0000 0.65930  0.69887  0.86359  Biso   1.000  C
  H133     1.0000 0.67830  0.69760  0.85910  Biso   1.000  H
  C188     1.0000 0.61240  0.67310  0.86291  Biso   1.000  C
  H134     1.0000 0.60230  0.65690  0.85840  Biso   1.000  H
  C189     1.0000 0.60220  0.69810  0.87484  Biso   1.000  C
  H135     1.0000 0.58320  0.69970  0.87920  Biso   1.000  H
  O55      1.0000 0.52696  0.36617  0.40325  Biso   1.000  O
  O56      1.0000 0.52786  0.33059  0.36868  Biso   1.000  O
  C190     1.0000 0.53466  0.34506  0.39357  Biso   1.000  C
  C191     1.0000 0.55571  0.32661  0.40730  Biso   1.000  C
  C192     1.0000 0.56482  0.30193  0.39941  Biso   1.000  C
  H136     1.0000 0.55490  0.29200  0.38600  Biso   1.000  H
  C193     1.0000 0.64847  0.22253  0.37491  Biso   1.000  C
  H137     1.0000 0.65880  0.23850  0.37920  Biso   1.000  H
  C194     1.0000 0.65930  0.19887  0.36359  Biso   1.000  C
  H138     1.0000 0.67830  0.19760  0.35910  Biso   1.000  H
  C195     1.0000 0.61240  0.17310  0.36291  Biso   1.000  C
  H139     1.0000 0.60230  0.15690  0.35840  Biso   1.000  H
  C196     1.0000 0.60220  0.19810  0.37484  Biso   1.000  C
  H140     1.0000 0.58320  0.19970  0.37920  Biso   1.000  H
  O57      1.0000 0.02696  0.13383  0.59675  Biso   1.000  O
  O58      1.0000 0.02786  0.16941  0.63132  Biso   1.000  O
  C197     1.0000 0.03466  0.15494  0.60643  Biso   1.000  C
  C198     1.0000 0.05571  0.17339  0.59270  Biso   1.000  C
  C199     1.0000 0.06482  0.19807  0.60059  Biso   1.000  C
  H141     1.0000 0.05490  0.20800  0.61400  Biso   1.000  H
  C200     1.0000 0.14847  0.27747  0.62509  Biso   1.000  C
  H142     1.0000 0.15880  0.26150  0.62080  Biso   1.000  H
  C201     1.0000 0.15930  0.30113  0.63641  Biso   1.000  C
  H143     1.0000 0.17830  0.30240  0.64090  Biso   1.000  H
  C202     1.0000 0.11240  0.32690  0.63709  Biso   1.000  C
  H144     1.0000 0.10230  0.34310  0.64160  Biso   1.000  H
  C203     1.0000 0.10220  0.30190  0.62516  Biso   1.000  C
  H145     1.0000 0.08320  0.30030  0.62080  Biso   1.000  H
  O59      1.0000 0.02696  0.63383  0.09675  Biso   1.000  O
  O60      1.0000 0.02786  0.66941  0.13132  Biso   1.000  O
  C204     1.0000 0.03466  0.65494  0.10643  Biso   1.000  C
  C205     1.0000 0.05571  0.67339  0.09270  Biso   1.000  C
  C206     1.0000 0.06482  0.69807  0.10059  Biso   1.000  C
  H146     1.0000 0.05490  0.70800  0.11400  Biso   1.000  H
  C207     1.0000 0.14847  0.77747  0.12509  Biso   1.000  C
  H147     1.0000 0.15880  0.76150  0.12080  Biso   1.000  H
  C208     1.0000 0.15930  0.80113  0.13641  Biso   1.000  C
  H148     1.0000 0.17830  0.80240  0.14090  Biso   1.000  H
  C209     1.0000 0.11240  0.82690  0.13709  Biso   1.000  C
  H149     1.0000 0.10230  0.84310  0.14160  Biso   1.000  H
  C210     1.0000 0.10220  0.80190  0.12516  Biso   1.000  C
  H150     1.0000 0.08320  0.80030  0.12080  Biso   1.000  H
  O61      1.0000 0.52696  0.13383  0.09675  Biso   1.000  O
  O62      1.0000 0.52786  0.16941  0.13132  Biso   1.000  O
  C211     1.0000 0.53466  0.15494  0.10643  Biso   1.000  C
  C212     1.0000 0.55571  0.17339  0.09270  Biso   1.000  C
  C213     1.0000 0.56482  0.19807  0.10059  Biso   1.000  C
  H151     1.0000 0.55490  0.20800  0.11400  Biso   1.000  H
  C214     1.0000 0.64847  0.27747  0.12509  Biso   1.000  C
  H152     1.0000 0.65880  0.26150  0.12080  Biso   1.000  H
  C215     1.0000 0.65930  0.30113  0.13641  Biso   1.000  C
  H153     1.0000 0.67830  0.30240  0.14090  Biso   1.000  H
  C216     1.0000 0.61240  0.32690  0.13709  Biso   1.000  C
  H154     1.0000 0.60230  0.34310  0.14160  Biso   1.000  H
  C217     1.0000 0.60220  0.30190  0.12516  Biso   1.000  C
  H155     1.0000 0.58320  0.30030  0.12080  Biso   1.000  H
  O63      1.0000 0.52696  0.63383  0.59675  Biso   1.000  O
  O64      1.0000 0.52786  0.66941  0.63132  Biso   1.000  O
  C218     1.0000 0.53466  0.65494  0.60643  Biso   1.000  C
  C219     1.0000 0.55571  0.67339  0.59270  Biso   1.000  C
  C220     1.0000 0.56482  0.69807  0.60059  Biso   1.000  C
  H156     1.0000 0.55490  0.70800  0.61400  Biso   1.000  H
  C221     1.0000 0.64847  0.77747  0.62509  Biso   1.000  C
  H157     1.0000 0.65880  0.76150  0.62080  Biso   1.000  H
  C222     1.0000 0.65930  0.80113  0.63641  Biso   1.000  C
  H158     1.0000 0.67830  0.80240  0.64090  Biso   1.000  H
  C223     1.0000 0.61240  0.82690  0.63709  Biso   1.000  C
  H159     1.0000 0.60230  0.84310  0.64160  Biso   1.000  H
  C224     1.0000 0.60220  0.80190  0.62516  Biso   1.000  C
  H160     1.0000 0.58320  0.80030  0.62080  Biso   1.000  H
  O65      1.0000 0.40325  0.97304  0.13383  Biso   1.000  O
  O66      1.0000 0.36868  0.97214  0.16941  Biso   1.000  O
  C225     1.0000 0.39357  0.96534  0.15494  Biso   1.000  C
  C226     1.0000 0.40730  0.94429  0.17339  Biso   1.000  C
  C227     1.0000 0.39941  0.93518  0.19807  Biso   1.000  C
  H161     1.0000 0.38600  0.94510  0.20800  Biso   1.000  H
  C228     1.0000 0.37491  0.85153  0.27747  Biso   1.000  C
  H162     1.0000 0.37920  0.84120  0.26150  Biso   1.000  H
  C229     1.0000 0.36359  0.84070  0.30113  Biso   1.000  C
  H163     1.0000 0.35910  0.82170  0.30240  Biso   1.000  H
  C230     1.0000 0.36291  0.88760  0.32690  Biso   1.000  C
  H164     1.0000 0.35840  0.89770  0.34310  Biso   1.000  H
  C231     1.0000 0.37484  0.89780  0.30190  Biso   1.000  C
  H165     1.0000 0.37920  0.91680  0.30030  Biso   1.000  H
  O67      1.0000 0.40325  0.47304  0.63383  Biso   1.000  O
  O68      1.0000 0.36868  0.47214  0.66941  Biso   1.000  O
  C232     1.0000 0.39357  0.46534  0.65494  Biso   1.000  C
  C233     1.0000 0.40730  0.44429  0.67339  Biso   1.000  C
  C234     1.0000 0.39941  0.43518  0.69807  Biso   1.000  C
  H166     1.0000 0.38600  0.44510  0.70800  Biso   1.000  H
  C235     1.0000 0.37491  0.35153  0.77747  Biso   1.000  C
  H167     1.0000 0.37920  0.34120  0.76150  Biso   1.000  H
  C236     1.0000 0.36359  0.34070  0.80113  Biso   1.000  C
  H168     1.0000 0.35910  0.32170  0.80240  Biso   1.000  H
  C237     1.0000 0.36291  0.38760  0.82690  Biso   1.000  C
  H169     1.0000 0.35840  0.39770  0.84310  Biso   1.000  H
  C238     1.0000 0.37484  0.39780  0.80190  Biso   1.000  C
  H170     1.0000 0.37920  0.41680  0.80030  Biso   1.000  H
  O69      1.0000 0.90325  0.97304  0.63383  Biso   1.000  O
  O70      1.0000 0.86868  0.97214  0.66941  Biso   1.000  O
  C239     1.0000 0.89357  0.96534  0.65494  Biso   1.000  C
  C240     1.0000 0.90730  0.94429  0.67339  Biso   1.000  C
  C241     1.0000 0.89941  0.93518  0.69807  Biso   1.000  C
  H171     1.0000 0.88600  0.94510  0.70800  Biso   1.000  H
  C242     1.0000 0.87491  0.85153  0.77747  Biso   1.000  C
  H172     1.0000 0.87920  0.84120  0.76150  Biso   1.000  H
  C243     1.0000 0.86359  0.84070  0.80113  Biso   1.000  C
  H173     1.0000 0.85910  0.82170  0.80240  Biso   1.000  H
  C244     1.0000 0.86291  0.88760  0.82690  Biso   1.000  C
  H174     1.0000 0.85840  0.89770  0.84310  Biso   1.000  H
  C245     1.0000 0.87484  0.89780  0.80190  Biso   1.000  C
  H175     1.0000 0.87920  0.91680  0.80030  Biso   1.000  H
  O71      1.0000 0.90325  0.47304  0.13383  Biso   1.000  O
  O72      1.0000 0.86868  0.47214  0.16941  Biso   1.000  O
  C246     1.0000 0.89357  0.46534  0.15494  Biso   1.000  C
  C247     1.0000 0.90730  0.44429  0.17339  Biso   1.000  C
  C248     1.0000 0.89941  0.43518  0.19807  Biso   1.000  C
  H176     1.0000 0.88600  0.44510  0.20800  Biso   1.000  H
  C249     1.0000 0.87491  0.35153  0.27747  Biso   1.000  C
  H177     1.0000 0.87920  0.34120  0.26150  Biso   1.000  H
  C250     1.0000 0.86359  0.34070  0.30113  Biso   1.000  C
  H178     1.0000 0.85910  0.32170  0.30240  Biso   1.000  H
  C251     1.0000 0.86291  0.38760  0.32690  Biso   1.000  C
  H179     1.0000 0.85840  0.39770  0.34310  Biso   1.000  H
  C252     1.0000 0.87484  0.39780  0.30190  Biso   1.000  C
  H180     1.0000 0.87920  0.41680  0.30030  Biso   1.000  H
  O73      1.0000 0.59675  0.97304  0.86617  Biso   1.000  O
  O74      1.0000 0.63132  0.97214  0.83059  Biso   1.000  O
  C253     1.0000 0.60643  0.96534  0.84506  Biso   1.000  C
  C254     1.0000 0.59270  0.94429  0.82661  Biso   1.000  C
  C255     1.0000 0.60059  0.93518  0.80193  Biso   1.000  C
  H181     1.0000 0.61400  0.94510  0.79200  Biso   1.000  H
  C256     1.0000 0.62509  0.85153  0.72253  Biso   1.000  C
  H182     1.0000 0.62080  0.84120  0.73850  Biso   1.000  H
  C257     1.0000 0.63641  0.84070  0.69887  Biso   1.000  C
  H183     1.0000 0.64090  0.82170  0.69760  Biso   1.000  H
  C258     1.0000 0.63709  0.88760  0.67310  Biso   1.000  C
  H184     1.0000 0.64160  0.89770  0.65690  Biso   1.000  H
  C259     1.0000 0.62516  0.89780  0.69810  Biso   1.000  C
  H185     1.0000 0.62080  0.91680  0.69970  Biso   1.000  H
  O75      1.0000 0.59675  0.47304  0.36617  Biso   1.000  O
  O76      1.0000 0.63132  0.47214  0.33059  Biso   1.000  O
  C260     1.0000 0.60643  0.46534  0.34506  Biso   1.000  C
  C261     1.0000 0.59270  0.44429  0.32661  Biso   1.000  C
  C262     1.0000 0.60059  0.43518  0.30193  Biso   1.000  C
  H186     1.0000 0.61400  0.44510  0.29200  Biso   1.000  H
  C263     1.0000 0.62509  0.35153  0.22253  Biso   1.000  C
  H187     1.0000 0.62080  0.34120  0.23850  Biso   1.000  H
  C264     1.0000 0.63641  0.34070  0.19887  Biso   1.000  C
  H188     1.0000 0.64090  0.32170  0.19760  Biso   1.000  H
  C265     1.0000 0.63709  0.38760  0.17310  Biso   1.000  C
  H189     1.0000 0.64160  0.39770  0.15690  Biso   1.000  H
  C266     1.0000 0.62516  0.39780  0.19810  Biso   1.000  C
  H190     1.0000 0.62080  0.41680  0.19970  Biso   1.000  H
  O77      1.0000 0.09675  0.97304  0.36617  Biso   1.000  O
  O78      1.0000 0.13132  0.97214  0.33059  Biso   1.000  O
  C267     1.0000 0.10643  0.96534  0.34506  Biso   1.000  C
  C268     1.0000 0.09270  0.94429  0.32661  Biso   1.000  C
  C269     1.0000 0.10059  0.93518  0.30193  Biso   1.000  C
  H191     1.0000 0.11400  0.94510  0.29200  Biso   1.000  H
  C270     1.0000 0.12509  0.85153  0.22253  Biso   1.000  C
  H192     1.0000 0.12080  0.84120  0.23850  Biso   1.000  H
  C271     1.0000 0.13641  0.84070  0.19887  Biso   1.000  C
  H193     1.0000 0.14090  0.82170  0.19760  Biso   1.000  H
  C272     1.0000 0.13709  0.88760  0.17310  Biso   1.000  C
  H194     1.0000 0.14160  0.89770  0.15690  Biso   1.000  H
  C273     1.0000 0.12516  0.89780  0.19810  Biso   1.000  C
  H195     1.0000 0.12080  0.91680  0.19970  Biso   1.000  H
  O79      1.0000 0.09675  0.47304  0.86617  Biso   1.000  O
  O80      1.0000 0.13132  0.47214  0.83059  Biso   1.000  O
  C274     1.0000 0.10643  0.46534  0.84506  Biso   1.000  C
  C275     1.0000 0.09270  0.44429  0.82661  Biso   1.000  C
  C276     1.0000 0.10059  0.43518  0.80193  Biso   1.000  C
  H196     1.0000 0.11400  0.44510  0.79200  Biso   1.000  H
  C277     1.0000 0.12509  0.35153  0.72253  Biso   1.000  C
  H197     1.0000 0.12080  0.34120  0.73850  Biso   1.000  H
  C278     1.0000 0.13641  0.34070  0.69887  Biso   1.000  C
  H198     1.0000 0.14090  0.32170  0.69760  Biso   1.000  H
  C279     1.0000 0.13709  0.38760  0.67310  Biso   1.000  C
  H199     1.0000 0.14160  0.39770  0.65690  Biso   1.000  H
  C280     1.0000 0.12516  0.39780  0.69810  Biso   1.000  C
  H200     1.0000 0.12080  0.41680  0.69970  Biso   1.000  H
  O81      1.0000 0.40325  0.02696  0.86617  Biso   1.000  O
  O82      1.0000 0.36868  0.02786  0.83059  Biso   1.000  O
  C281     1.0000 0.39357  0.03466  0.84506  Biso   1.000  C
  C282     1.0000 0.40730  0.05571  0.82661  Biso   1.000  C
  C283     1.0000 0.39941  0.06482  0.80193  Biso   1.000  C
  H201     1.0000 0.38600  0.05490  0.79200  Biso   1.000  H
  C284     1.0000 0.37491  0.14847  0.72253  Biso   1.000  C
  H202     1.0000 0.37920  0.15880  0.73850  Biso   1.000  H
  C285     1.0000 0.36359  0.15930  0.69887  Biso   1.000  C
  H203     1.0000 0.35910  0.17830  0.69760  Biso   1.000  H
  C286     1.0000 0.36291  0.11240  0.67310  Biso   1.000  C
  H204     1.0000 0.35840  0.10230  0.65690  Biso   1.000  H
  C287     1.0000 0.37484  0.10220  0.69810  Biso   1.000  C
  H205     1.0000 0.37920  0.08320  0.69970  Biso   1.000  H
  O83      1.0000 0.40325  0.52696  0.36617  Biso   1.000  O
  O84      1.0000 0.36868  0.52786  0.33059  Biso   1.000  O
  C288     1.0000 0.39357  0.53466  0.34506  Biso   1.000  C
  C289     1.0000 0.40730  0.55571  0.32661  Biso   1.000  C
  C290     1.0000 0.39941  0.56482  0.30193  Biso   1.000  C
  H206     1.0000 0.38600  0.55490  0.29200  Biso   1.000  H
  C291     1.0000 0.37491  0.64847  0.22253  Biso   1.000  C
  H207     1.0000 0.37920  0.65880  0.23850  Biso   1.000  H
  C292     1.0000 0.36359  0.65930  0.19887  Biso   1.000  C
  H208     1.0000 0.35910  0.67830  0.19760  Biso   1.000  H
  C293     1.0000 0.36291  0.61240  0.17310  Biso   1.000  C
  H209     1.0000 0.35840  0.60230  0.15690  Biso   1.000  H
  C294     1.0000 0.37484  0.60220  0.19810  Biso   1.000  C
  H210     1.0000 0.37920  0.58320  0.19970  Biso   1.000  H
  O85      1.0000 0.90325  0.02696  0.36617  Biso   1.000  O
  O86      1.0000 0.86868  0.02786  0.33059  Biso   1.000  O
  C295     1.0000 0.89357  0.03466  0.34506  Biso   1.000  C
  C296     1.0000 0.90730  0.05571  0.32661  Biso   1.000  C
  C297     1.0000 0.89941  0.06482  0.30193  Biso   1.000  C
  H211     1.0000 0.88600  0.05490  0.29200  Biso   1.000  H
  C298     1.0000 0.87491  0.14847  0.22253  Biso   1.000  C
  H212     1.0000 0.87920  0.15880  0.23850  Biso   1.000  H
  C299     1.0000 0.86359  0.15930  0.19887  Biso   1.000  C
  H213     1.0000 0.85910  0.17830  0.19760  Biso   1.000  H
  C300     1.0000 0.86291  0.11240  0.17310  Biso   1.000  C
  H214     1.0000 0.85840  0.10230  0.15690  Biso   1.000  H
  C301     1.0000 0.87484  0.10220  0.19810  Biso   1.000  C
  H215     1.0000 0.87920  0.08320  0.19970  Biso   1.000  H
  O87      1.0000 0.90325  0.52696  0.86617  Biso   1.000  O
  O88      1.0000 0.86868  0.52786  0.83059  Biso   1.000  O
  C302     1.0000 0.89357  0.53466  0.84506  Biso   1.000  C
  C303     1.0000 0.90730  0.55571  0.82661  Biso   1.000  C
  C304     1.0000 0.89941  0.56482  0.80193  Biso   1.000  C
  H216     1.0000 0.88600  0.55490  0.79200  Biso   1.000  H
  C305     1.0000 0.87491  0.64847  0.72253  Biso   1.000  C
  H217     1.0000 0.87920  0.65880  0.73850  Biso   1.000  H
  C306     1.0000 0.86359  0.65930  0.69887  Biso   1.000  C
  H218     1.0000 0.85910  0.67830  0.69760  Biso   1.000  H
  C307     1.0000 0.86291  0.61240  0.67310  Biso   1.000  C
  H219     1.0000 0.85840  0.60230  0.65690  Biso   1.000  H
  C308     1.0000 0.87484  0.60220  0.69810  Biso   1.000  C
  H220     1.0000 0.87920  0.58320  0.69970  Biso   1.000  H
  O89      1.0000 0.59675  0.02696  0.13383  Biso   1.000  O
  O90      1.0000 0.63132  0.02786  0.16941  Biso   1.000  O
  C309     1.0000 0.60643  0.03466  0.15494  Biso   1.000  C
  C310     1.0000 0.59270  0.05571  0.17339  Biso   1.000  C
  C311     1.0000 0.60059  0.06482  0.19807  Biso   1.000  C
  H221     1.0000 0.61400  0.05490  0.20800  Biso   1.000  H
  C312     1.0000 0.62509  0.14847  0.27747  Biso   1.000  C
  H222     1.0000 0.62080  0.15880  0.26150  Biso   1.000  H
  C313     1.0000 0.63641  0.15930  0.30113  Biso   1.000  C
  H223     1.0000 0.64090  0.17830  0.30240  Biso   1.000  H
  C314     1.0000 0.63709  0.11240  0.32690  Biso   1.000  C
  H224     1.0000 0.64160  0.10230  0.34310  Biso   1.000  H
  C315     1.0000 0.62516  0.10220  0.30190  Biso   1.000  C
  H225     1.0000 0.62080  0.08320  0.30030  Biso   1.000  H
  O91      1.0000 0.59675  0.52696  0.63383  Biso   1.000  O
  O92      1.0000 0.63132  0.52786  0.66941  Biso   1.000  O
  C316     1.0000 0.60643  0.53466  0.65494  Biso   1.000  C
  C317     1.0000 0.59270  0.55571  0.67339  Biso   1.000  C
  C318     1.0000 0.60059  0.56482  0.69807  Biso   1.000  C
  H226     1.0000 0.61400  0.55490  0.70800  Biso   1.000  H
  C319     1.0000 0.62509  0.64847  0.77747  Biso   1.000  C
  H227     1.0000 0.62080  0.65880  0.76150  Biso   1.000  H
  C320     1.0000 0.63641  0.65930  0.80113  Biso   1.000  C
  H228     1.0000 0.64090  0.67830  0.80240  Biso   1.000  H
  C321     1.0000 0.63709  0.61240  0.82690  Biso   1.000  C
  H229     1.0000 0.64160  0.60230  0.84310  Biso   1.000  H
  C322     1.0000 0.62516  0.60220  0.80190  Biso   1.000  C
  H230     1.0000 0.62080  0.58320  0.80030  Biso   1.000  H
  O93      1.0000 0.09675  0.02696  0.63383  Biso   1.000  O
  O94      1.0000 0.13132  0.02786  0.66941  Biso   1.000  O
  C323     1.0000 0.10643  0.03466  0.65494  Biso   1.000  C
  C324     1.0000 0.09270  0.05571  0.67339  Biso   1.000  C
  C325     1.0000 0.10059  0.06482  0.69807  Biso   1.000  C
  H231     1.0000 0.11400  0.05490  0.70800  Biso   1.000  H
  C326     1.0000 0.12509  0.14847  0.77747  Biso   1.000  C
  H232     1.0000 0.12080  0.15880  0.76150  Biso   1.000  H
  C327     1.0000 0.13641  0.15930  0.80113  Biso   1.000  C
  H233     1.0000 0.14090  0.17830  0.80240  Biso   1.000  H
  C328     1.0000 0.13709  0.11240  0.82690  Biso   1.000  C
  H234     1.0000 0.14160  0.10230  0.84310  Biso   1.000  H
  C329     1.0000 0.12516  0.10220  0.80190  Biso   1.000  C
  H235     1.0000 0.12080  0.08320  0.80030  Biso   1.000  H
  O95      1.0000 0.09675  0.52696  0.13383  Biso   1.000  O
  O96      1.0000 0.13132  0.52786  0.16941  Biso   1.000  O
  C330     1.0000 0.10643  0.53466  0.15494  Biso   1.000  C
  C331     1.0000 0.09270  0.55571  0.17339  Biso   1.000  C
  C332     1.0000 0.10059  0.56482  0.19807  Biso   1.000  C
  H236     1.0000 0.11400  0.55490  0.20800  Biso   1.000  H
  C333     1.0000 0.12509  0.64847  0.27747  Biso   1.000  C
  H237     1.0000 0.12080  0.65880  0.26150  Biso   1.000  H
  C334     1.0000 0.13641  0.65930  0.30113  Biso   1.000  C
  H238     1.0000 0.14090  0.67830  0.30240  Biso   1.000  H
  C335     1.0000 0.13709  0.61240  0.32690  Biso   1.000  C
  H239     1.0000 0.14160  0.60230  0.34310  Biso   1.000  H
  C336     1.0000 0.12516  0.60220  0.30190  Biso   1.000  C
  H240     1.0000 0.12080  0.58320  0.30030  Biso   1.000  H
  O97      1.0000 0.40325  0.13383  0.02696  Biso   1.000  O
  O98      1.0000 0.36868  0.16941  0.02786  Biso   1.000  O
  C337     1.0000 0.39357  0.15494  0.03466  Biso   1.000  C
  C338     1.0000 0.40730  0.17339  0.05571  Biso   1.000  C
  C339     1.0000 0.39941  0.19807  0.06482  Biso   1.000  C
  H241     1.0000 0.38600  0.20800  0.05490  Biso   1.000  H
  C340     1.0000 0.37491  0.27747  0.14847  Biso   1.000  C
  H242     1.0000 0.37920  0.26150  0.15880  Biso   1.000  H
  C341     1.0000 0.36359  0.30113  0.15930  Biso   1.000  C
  H243     1.0000 0.35910  0.30240  0.17830  Biso   1.000  H
  C342     1.0000 0.36291  0.32690  0.11240  Biso   1.000  C
  H244     1.0000 0.35840  0.34310  0.10230  Biso   1.000  H
  C343     1.0000 0.37484  0.30190  0.10220  Biso   1.000  C
  H245     1.0000 0.37920  0.30030  0.08320  Biso   1.000  H
  O99      1.0000 0.40325  0.63383  0.52696  Biso   1.000  O
  O100     1.0000 0.36868  0.66941  0.52786  Biso   1.000  O
  C344     1.0000 0.39357  0.65494  0.53466  Biso   1.000  C
  C345     1.0000 0.40730  0.67339  0.55571  Biso   1.000  C
  C346     1.0000 0.39941  0.69807  0.56482  Biso   1.000  C
  H246     1.0000 0.38600  0.70800  0.55490  Biso   1.000  H
  C347     1.0000 0.37491  0.77747  0.64847  Biso   1.000  C
  H247     1.0000 0.37920  0.76150  0.65880  Biso   1.000  H
  C348     1.0000 0.36359  0.80113  0.65930  Biso   1.000  C
  H248     1.0000 0.35910  0.80240  0.67830  Biso   1.000  H
  C349     1.0000 0.36291  0.82690  0.61240  Biso   1.000  C
  H249     1.0000 0.35840  0.84310  0.60230  Biso   1.000  H
  C350     1.0000 0.37484  0.80190  0.60220  Biso   1.000  C
  H250     1.0000 0.37920  0.80030  0.58320  Biso   1.000  H
  O101     1.0000 0.90325  0.13383  0.52696  Biso   1.000  O
  O102     1.0000 0.86868  0.16941  0.52786  Biso   1.000  O
  C351     1.0000 0.89357  0.15494  0.53466  Biso   1.000  C
  C352     1.0000 0.90730  0.17339  0.55571  Biso   1.000  C
  C353     1.0000 0.89941  0.19807  0.56482  Biso   1.000  C
  H251     1.0000 0.88600  0.20800  0.55490  Biso   1.000  H
  C354     1.0000 0.87491  0.27747  0.64847  Biso   1.000  C
  H252     1.0000 0.87920  0.26150  0.65880  Biso   1.000  H
  C355     1.0000 0.86359  0.30113  0.65930  Biso   1.000  C
  H253     1.0000 0.85910  0.30240  0.67830  Biso   1.000  H
  C356     1.0000 0.86291  0.32690  0.61240  Biso   1.000  C
  H254     1.0000 0.85840  0.34310  0.60230  Biso   1.000  H
  C357     1.0000 0.87484  0.30190  0.60220  Biso   1.000  C
  H255     1.0000 0.87920  0.30030  0.58320  Biso   1.000  H
  O103     1.0000 0.90325  0.63383  0.02696  Biso   1.000  O
  O104     1.0000 0.86868  0.66941  0.02786  Biso   1.000  O
  C358     1.0000 0.89357  0.65494  0.03466  Biso   1.000  C
  C359     1.0000 0.90730  0.67339  0.05571  Biso   1.000  C
  C360     1.0000 0.89941  0.69807  0.06482  Biso   1.000  C
  H256     1.0000 0.88600  0.70800  0.05490  Biso   1.000  H
  C361     1.0000 0.87491  0.77747  0.14847  Biso   1.000  C
  H257     1.0000 0.87920  0.76150  0.15880  Biso   1.000  H
  C362     1.0000 0.86359  0.80113  0.15930  Biso   1.000  C
  H258     1.0000 0.85910  0.80240  0.17830  Biso   1.000  H
  C363     1.0000 0.86291  0.82690  0.11240  Biso   1.000  C
  H259     1.0000 0.85840  0.84310  0.10230  Biso   1.000  H
  C364     1.0000 0.87484  0.80190  0.10220  Biso   1.000  C
  H260     1.0000 0.87920  0.80030  0.08320  Biso   1.000  H
  O105     1.0000 0.59675  0.86617  0.02696  Biso   1.000  O
  O106     1.0000 0.63132  0.83059  0.02786  Biso   1.000  O
  C365     1.0000 0.60643  0.84506  0.03466  Biso   1.000  C
  C366     1.0000 0.59270  0.82661  0.05571  Biso   1.000  C
  C367     1.0000 0.60059  0.80193  0.06482  Biso   1.000  C
  H261     1.0000 0.61400  0.79200  0.05490  Biso   1.000  H
  C368     1.0000 0.62509  0.72253  0.14847  Biso   1.000  C
  H262     1.0000 0.62080  0.73850  0.15880  Biso   1.000  H
  C369     1.0000 0.63641  0.69887  0.15930  Biso   1.000  C
  H263     1.0000 0.64090  0.69760  0.17830  Biso   1.000  H
  C370     1.0000 0.63709  0.67310  0.11240  Biso   1.000  C
  H264     1.0000 0.64160  0.65690  0.10230  Biso   1.000  H
  C371     1.0000 0.62516  0.69810  0.10220  Biso   1.000  C
  H265     1.0000 0.62080  0.69970  0.08320  Biso   1.000  H
  O107     1.0000 0.59675  0.36617  0.52696  Biso   1.000  O
  O108     1.0000 0.63132  0.33059  0.52786  Biso   1.000  O
  C372     1.0000 0.60643  0.34506  0.53466  Biso   1.000  C
  C373     1.0000 0.59270  0.32661  0.55571  Biso   1.000  C
  C374     1.0000 0.60059  0.30193  0.56482  Biso   1.000  C
  H266     1.0000 0.61400  0.29200  0.55490  Biso   1.000  H
  C375     1.0000 0.62509  0.22253  0.64847  Biso   1.000  C
  H267     1.0000 0.62080  0.23850  0.65880  Biso   1.000  H
  C376     1.0000 0.63641  0.19887  0.65930  Biso   1.000  C
  H268     1.0000 0.64090  0.19760  0.67830  Biso   1.000  H
  C377     1.0000 0.63709  0.17310  0.61240  Biso   1.000  C
  H269     1.0000 0.64160  0.15690  0.60230  Biso   1.000  H
  C378     1.0000 0.62516  0.19810  0.60220  Biso   1.000  C
  H270     1.0000 0.62080  0.19970  0.58320  Biso   1.000  H
  O109     1.0000 0.09675  0.86617  0.52696  Biso   1.000  O
  O110     1.0000 0.13132  0.83059  0.52786  Biso   1.000  O
  C379     1.0000 0.10643  0.84506  0.53466  Biso   1.000  C
  C380     1.0000 0.09270  0.82661  0.55571  Biso   1.000  C
  C381     1.0000 0.10059  0.80193  0.56482  Biso   1.000  C
  H271     1.0000 0.11400  0.79200  0.55490  Biso   1.000  H
  C382     1.0000 0.12509  0.72253  0.64847  Biso   1.000  C
  H272     1.0000 0.12080  0.73850  0.65880  Biso   1.000  H
  C383     1.0000 0.13641  0.69887  0.65930  Biso   1.000  C
  H273     1.0000 0.14090  0.69760  0.67830  Biso   1.000  H
  C384     1.0000 0.13709  0.67310  0.61240  Biso   1.000  C
  H274     1.0000 0.14160  0.65690  0.60230  Biso   1.000  H
  C385     1.0000 0.12516  0.69810  0.60220  Biso   1.000  C
  H275     1.0000 0.12080  0.69970  0.58320  Biso   1.000  H
  O111     1.0000 0.09675  0.36617  0.02696  Biso   1.000  O
  O112     1.0000 0.13132  0.33059  0.02786  Biso   1.000  O
  C386     1.0000 0.10643  0.34506  0.03466  Biso   1.000  C
  C387     1.0000 0.09270  0.32661  0.05571  Biso   1.000  C
  C388     1.0000 0.10059  0.30193  0.06482  Biso   1.000  C
  H276     1.0000 0.11400  0.29200  0.05490  Biso   1.000  H
  C389     1.0000 0.12509  0.22253  0.14847  Biso   1.000  C
  H277     1.0000 0.12080  0.23850  0.15880  Biso   1.000  H
  C390     1.0000 0.13641  0.19887  0.15930  Biso   1.000  C
  H278     1.0000 0.14090  0.19760  0.17830  Biso   1.000  H
  C391     1.0000 0.13709  0.17310  0.11240  Biso   1.000  C
  H279     1.0000 0.14160  0.15690  0.10230  Biso   1.000  H
  C392     1.0000 0.12516  0.19810  0.10220  Biso   1.000  C
  H280     1.0000 0.12080  0.19970  0.08320  Biso   1.000  H
  O113     1.0000 0.40325  0.86617  0.97304  Biso   1.000  O
  O114     1.0000 0.36868  0.83059  0.97214  Biso   1.000  O
  C393     1.0000 0.39357  0.84506  0.96534  Biso   1.000  C
  C394     1.0000 0.40730  0.82661  0.94429  Biso   1.000  C
  C395     1.0000 0.39941  0.80193  0.93518  Biso   1.000  C
  H281     1.0000 0.38600  0.79200  0.94510  Biso   1.000  H
  C396     1.0000 0.37491  0.72253  0.85153  Biso   1.000  C
  H282     1.0000 0.37920  0.73850  0.84120  Biso   1.000  H
  C397     1.0000 0.36359  0.69887  0.84070  Biso   1.000  C
  H283     1.0000 0.35910  0.69760  0.82170  Biso   1.000  H
  C398     1.0000 0.36291  0.67310  0.88760  Biso   1.000  C
  H284     1.0000 0.35840  0.65690  0.89770  Biso   1.000  H
  C399     1.0000 0.37484  0.69810  0.89780  Biso   1.000  C
  H285     1.0000 0.37920  0.69970  0.91680  Biso   1.000  H
  O115     1.0000 0.40325  0.36617  0.47304  Biso   1.000  O
  O116     1.0000 0.36868  0.33059  0.47214  Biso   1.000  O
  C400     1.0000 0.39357  0.34506  0.46534  Biso   1.000  C
  C401     1.0000 0.40730  0.32661  0.44429  Biso   1.000  C
  C402     1.0000 0.39941  0.30193  0.43518  Biso   1.000  C
  H286     1.0000 0.38600  0.29200  0.44510  Biso   1.000  H
  C403     1.0000 0.37491  0.22253  0.35153  Biso   1.000  C
  H287     1.0000 0.37920  0.23850  0.34120  Biso   1.000  H
  C404     1.0000 0.36359  0.19887  0.34070  Biso   1.000  C
  H288     1.0000 0.35910  0.19760  0.32170  Biso   1.000  H
  C405     1.0000 0.36291  0.17310  0.38760  Biso   1.000  C
  H289     1.0000 0.35840  0.15690  0.39770  Biso   1.000  H
  C406     1.0000 0.37484  0.19810  0.39780  Biso   1.000  C
  H290     1.0000 0.37920  0.19970  0.41680  Biso   1.000  H
  O117     1.0000 0.90325  0.86617  0.47304  Biso   1.000  O
  O118     1.0000 0.86868  0.83059  0.47214  Biso   1.000  O
  C407     1.0000 0.89357  0.84506  0.46534  Biso   1.000  C
  C408     1.0000 0.90730  0.82661  0.44429  Biso   1.000  C
  C409     1.0000 0.89941  0.80193  0.43518  Biso   1.000  C
  H291     1.0000 0.88600  0.79200  0.44510  Biso   1.000  H
  C410     1.0000 0.87491  0.72253  0.35153  Biso   1.000  C
  H292     1.0000 0.87920  0.73850  0.34120  Biso   1.000  H
  C411     1.0000 0.86359  0.69887  0.34070  Biso   1.000  C
  H293     1.0000 0.85910  0.69760  0.32170  Biso   1.000  H
  C412     1.0000 0.86291  0.67310  0.38760  Biso   1.000  C
  H294     1.0000 0.85840  0.65690  0.39770  Biso   1.000  H
  C413     1.0000 0.87484  0.69810  0.39780  Biso   1.000  C
  H295     1.0000 0.87920  0.69970  0.41680  Biso   1.000  H
  O119     1.0000 0.90325  0.36617  0.97304  Biso   1.000  O
  O120     1.0000 0.86868  0.33059  0.97214  Biso   1.000  O
  C414     1.0000 0.89357  0.34506  0.96534  Biso   1.000  C
  C415     1.0000 0.90730  0.32661  0.94429  Biso   1.000  C
  C416     1.0000 0.89941  0.30193  0.93518  Biso   1.000  C
  H296     1.0000 0.88600  0.29200  0.94510  Biso   1.000  H
  C417     1.0000 0.87491  0.22253  0.85153  Biso   1.000  C
  H297     1.0000 0.87920  0.23850  0.84120  Biso   1.000  H
  C418     1.0000 0.86359  0.19887  0.84070  Biso   1.000  C
  H298     1.0000 0.85910  0.19760  0.82170  Biso   1.000  H
  C419     1.0000 0.86291  0.17310  0.88760  Biso   1.000  C
  H299     1.0000 0.85840  0.15690  0.89770  Biso   1.000  H
  C420     1.0000 0.87484  0.19810  0.89780  Biso   1.000  C
  H300     1.0000 0.87920  0.19970  0.91680  Biso   1.000  H
  O121     1.0000 0.59675  0.13383  0.97304  Biso   1.000  O
  O122     1.0000 0.63132  0.16941  0.97214  Biso   1.000  O
  C421     1.0000 0.60643  0.15494  0.96534  Biso   1.000  C
  C422     1.0000 0.59270  0.17339  0.94429  Biso   1.000  C
  C423     1.0000 0.60059  0.19807  0.93518  Biso   1.000  C
  H301     1.0000 0.61400  0.20800  0.94510  Biso   1.000  H
  C424     1.0000 0.62509  0.27747  0.85153  Biso   1.000  C
  H302     1.0000 0.62080  0.26150  0.84120  Biso   1.000  H
  C425     1.0000 0.63641  0.30113  0.84070  Biso   1.000  C
  H303     1.0000 0.64090  0.30240  0.82170  Biso   1.000  H
  C426     1.0000 0.63709  0.32690  0.88760  Biso   1.000  C
  H304     1.0000 0.64160  0.34310  0.89770  Biso   1.000  H
  C427     1.0000 0.62516  0.30190  0.89780  Biso   1.000  C
  H305     1.0000 0.62080  0.30030  0.91680  Biso   1.000  H
  O123     1.0000 0.59675  0.63383  0.47304  Biso   1.000  O
  O124     1.0000 0.63132  0.66941  0.47214  Biso   1.000  O
  C428     1.0000 0.60643  0.65494  0.46534  Biso   1.000  C
  C429     1.0000 0.59270  0.67339  0.44429  Biso   1.000  C
  C430     1.0000 0.60059  0.69807  0.43518  Biso   1.000  C
  H306     1.0000 0.61400  0.70800  0.44510  Biso   1.000  H
  C431     1.0000 0.62509  0.77747  0.35153  Biso   1.000  C
  H307     1.0000 0.62080  0.76150  0.34120  Biso   1.000  H
  C432     1.0000 0.63641  0.80113  0.34070  Biso   1.000  C
  H308     1.0000 0.64090  0.80240  0.32170  Biso   1.000  H
  C433     1.0000 0.63709  0.82690  0.38760  Biso   1.000  C
  H309     1.0000 0.64160  0.84310  0.39770  Biso   1.000  H
  C434     1.0000 0.62516  0.80190  0.39780  Biso   1.000  C
  H310     1.0000 0.62080  0.80030  0.41680  Biso   1.000  H
  O125     1.0000 0.09675  0.13383  0.47304  Biso   1.000  O
  O126     1.0000 0.13132  0.16941  0.47214  Biso   1.000  O
  C435     1.0000 0.10643  0.15494  0.46534  Biso   1.000  C
  C436     1.0000 0.09270  0.17339  0.44429  Biso   1.000  C
  C437     1.0000 0.10059  0.19807  0.43518  Biso   1.000  C
  H311     1.0000 0.11400  0.20800  0.44510  Biso   1.000  H
  C438     1.0000 0.12509  0.27747  0.35153  Biso   1.000  C
  H312     1.0000 0.12080  0.26150  0.34120  Biso   1.000  H
  C439     1.0000 0.13641  0.30113  0.34070  Biso   1.000  C
  H313     1.0000 0.14090  0.30240  0.32170  Biso   1.000  H
  C440     1.0000 0.13709  0.32690  0.38760  Biso   1.000  C
  H314     1.0000 0.14160  0.34310  0.39770  Biso   1.000  H
  C441     1.0000 0.12516  0.30190  0.39780  Biso   1.000  C
  H315     1.0000 0.12080  0.30030  0.41680  Biso   1.000  H
  O127     1.0000 0.09675  0.63383  0.97304  Biso   1.000  O
  O128     1.0000 0.13132  0.66941  0.97214  Biso   1.000  O
  C442     1.0000 0.10643  0.65494  0.96534  Biso   1.000  C
  C443     1.0000 0.09270  0.67339  0.94429  Biso   1.000  C
  C444     1.0000 0.10059  0.69807  0.93518  Biso   1.000  C
  H316     1.0000 0.11400  0.70800  0.94510  Biso   1.000  H
  C445     1.0000 0.12509  0.77747  0.85153  Biso   1.000  C
  H317     1.0000 0.12080  0.76150  0.84120  Biso   1.000  H
  C446     1.0000 0.13641  0.80113  0.84070  Biso   1.000  C
  H318     1.0000 0.14090  0.80240  0.82170  Biso   1.000  H
  C447     1.0000 0.13709  0.82690  0.88760  Biso   1.000  C
  H319     1.0000 0.14160  0.84310  0.89770  Biso   1.000  H
  C448     1.0000 0.12516  0.80190  0.89780  Biso   1.000  C
  H320     1.0000 0.12080  0.80030  0.91680  Biso   1.000  H
  O129     1.0000 0.13383  0.97304  0.59675  Biso   1.000  O
  O130     1.0000 0.16941  0.97214  0.63132  Biso   1.000  O
  C449     1.0000 0.15494  0.96534  0.60643  Biso   1.000  C
  C450     1.0000 0.17339  0.94429  0.59270  Biso   1.000  C
  C451     1.0000 0.19807  0.93518  0.60059  Biso   1.000  C
  H321     1.0000 0.20800  0.94510  0.61400  Biso   1.000  H
  C452     1.0000 0.27747  0.85153  0.62509  Biso   1.000  C
  H322     1.0000 0.26150  0.84120  0.62080  Biso   1.000  H
  C453     1.0000 0.30113  0.84070  0.63641  Biso   1.000  C
  H323     1.0000 0.30240  0.82170  0.64090  Biso   1.000  H
  C454     1.0000 0.32690  0.88760  0.63709  Biso   1.000  C
  H324     1.0000 0.34310  0.89770  0.64160  Biso   1.000  H
  C455     1.0000 0.30190  0.89780  0.62516  Biso   1.000  C
  H325     1.0000 0.30030  0.91680  0.62080  Biso   1.000  H
  O131     1.0000 0.13383  0.47304  0.09675  Biso   1.000  O
  O132     1.0000 0.16941  0.47214  0.13132  Biso   1.000  O
  C456     1.0000 0.15494  0.46534  0.10643  Biso   1.000  C
  C457     1.0000 0.17339  0.44429  0.09270  Biso   1.000  C
  C458     1.0000 0.19807  0.43518  0.10059  Biso   1.000  C
  H326     1.0000 0.20800  0.44510  0.11400  Biso   1.000  H
  C459     1.0000 0.27747  0.35153  0.12509  Biso   1.000  C
  H327     1.0000 0.26150  0.34120  0.12080  Biso   1.000  H
  C460     1.0000 0.30113  0.34070  0.13641  Biso   1.000  C
  H328     1.0000 0.30240  0.32170  0.14090  Biso   1.000  H
  C461     1.0000 0.32690  0.38760  0.13709  Biso   1.000  C
  H329     1.0000 0.34310  0.39770  0.14160  Biso   1.000  H
  C462     1.0000 0.30190  0.39780  0.12516  Biso   1.000  C
  H330     1.0000 0.30030  0.41680  0.12080  Biso   1.000  H
  O133     1.0000 0.63383  0.97304  0.09675  Biso   1.000  O
  O134     1.0000 0.66941  0.97214  0.13132  Biso   1.000  O
  C463     1.0000 0.65494  0.96534  0.10643  Biso   1.000  C
  C464     1.0000 0.67339  0.94429  0.09270  Biso   1.000  C
  C465     1.0000 0.69807  0.93518  0.10059  Biso   1.000  C
  H331     1.0000 0.70800  0.94510  0.11400  Biso   1.000  H
  C466     1.0000 0.77747  0.85153  0.12509  Biso   1.000  C
  H332     1.0000 0.76150  0.84120  0.12080  Biso   1.000  H
  C467     1.0000 0.80113  0.84070  0.13641  Biso   1.000  C
  H333     1.0000 0.80240  0.82170  0.14090  Biso   1.000  H
  C468     1.0000 0.82690  0.88760  0.13709  Biso   1.000  C
  H334     1.0000 0.84310  0.89770  0.14160  Biso   1.000  H
  C469     1.0000 0.80190  0.89780  0.12516  Biso   1.000  C
  H335     1.0000 0.80030  0.91680  0.12080  Biso   1.000  H
  O135     1.0000 0.63383  0.47304  0.59675  Biso   1.000  O
  O136     1.0000 0.66941  0.47214  0.63132  Biso   1.000  O
  C470     1.0000 0.65494  0.46534  0.60643  Biso   1.000  C
  C471     1.0000 0.67339  0.44429  0.59270  Biso   1.000  C
  C472     1.0000 0.69807  0.43518  0.60059  Biso   1.000  C
  H336     1.0000 0.70800  0.44510  0.61400  Biso   1.000  H
  C473     1.0000 0.77747  0.35153  0.62509  Biso   1.000  C
  H337     1.0000 0.76150  0.34120  0.62080  Biso   1.000  H
  C474     1.0000 0.80113  0.34070  0.63641  Biso   1.000  C
  H338     1.0000 0.80240  0.32170  0.64090  Biso   1.000  H
  C475     1.0000 0.82690  0.38760  0.63709  Biso   1.000  C
  H339     1.0000 0.84310  0.39770  0.64160  Biso   1.000  H
  C476     1.0000 0.80190  0.39780  0.62516  Biso   1.000  C
  H340     1.0000 0.80030  0.41680  0.62080  Biso   1.000  H
  O137     1.0000 0.86617  0.97304  0.40325  Biso   1.000  O
  O138     1.0000 0.83059  0.97214  0.36868  Biso   1.000  O
  C477     1.0000 0.84506  0.96534  0.39357  Biso   1.000  C
  C478     1.0000 0.82661  0.94429  0.40730  Biso   1.000  C
  C479     1.0000 0.80193  0.93518  0.39941  Biso   1.000  C
  H341     1.0000 0.79200  0.94510  0.38600  Biso   1.000  H
  C480     1.0000 0.72253  0.85153  0.37491  Biso   1.000  C
  H342     1.0000 0.73850  0.84120  0.37920  Biso   1.000  H
  C481     1.0000 0.69887  0.84070  0.36359  Biso   1.000  C
  H343     1.0000 0.69760  0.82170  0.35910  Biso   1.000  H
  C482     1.0000 0.67310  0.88760  0.36291  Biso   1.000  C
  H344     1.0000 0.65690  0.89770  0.35840  Biso   1.000  H
  C483     1.0000 0.69810  0.89780  0.37484  Biso   1.000  C
  H345     1.0000 0.69970  0.91680  0.37920  Biso   1.000  H
  O139     1.0000 0.86617  0.47304  0.90325  Biso   1.000  O
  O140     1.0000 0.83059  0.47214  0.86868  Biso   1.000  O
  C484     1.0000 0.84506  0.46534  0.89357  Biso   1.000  C
  C485     1.0000 0.82661  0.44429  0.90730  Biso   1.000  C
  C486     1.0000 0.80193  0.43518  0.89941  Biso   1.000  C
  H346     1.0000 0.79200  0.44510  0.88600  Biso   1.000  H
  C487     1.0000 0.72253  0.35153  0.87491  Biso   1.000  C
  H347     1.0000 0.73850  0.34120  0.87920  Biso   1.000  H
  C488     1.0000 0.69887  0.34070  0.86359  Biso   1.000  C
  H348     1.0000 0.69760  0.32170  0.85910  Biso   1.000  H
  C489     1.0000 0.67310  0.38760  0.86291  Biso   1.000  C
  H349     1.0000 0.65690  0.39770  0.85840  Biso   1.000  H
  C490     1.0000 0.69810  0.39780  0.87484  Biso   1.000  C
  H350     1.0000 0.69970  0.41680  0.87920  Biso   1.000  H
  O141     1.0000 0.36617  0.97304  0.90325  Biso   1.000  O
  O142     1.0000 0.33059  0.97214  0.86868  Biso   1.000  O
  C491     1.0000 0.34506  0.96534  0.89357  Biso   1.000  C
  C492     1.0000 0.32661  0.94429  0.90730  Biso   1.000  C
  C493     1.0000 0.30193  0.93518  0.89941  Biso   1.000  C
  H351     1.0000 0.29200  0.94510  0.88600  Biso   1.000  H
  C494     1.0000 0.22253  0.85153  0.87491  Biso   1.000  C
  H352     1.0000 0.23850  0.84120  0.87920  Biso   1.000  H
  C495     1.0000 0.19887  0.84070  0.86359  Biso   1.000  C
  H353     1.0000 0.19760  0.82170  0.85910  Biso   1.000  H
  C496     1.0000 0.17310  0.88760  0.86291  Biso   1.000  C
  H354     1.0000 0.15690  0.89770  0.85840  Biso   1.000  H
  C497     1.0000 0.19810  0.89780  0.87484  Biso   1.000  C
  H355     1.0000 0.19970  0.91680  0.87920  Biso   1.000  H
  O143     1.0000 0.36617  0.47304  0.40325  Biso   1.000  O
  O144     1.0000 0.33059  0.47214  0.36868  Biso   1.000  O
  C498     1.0000 0.34506  0.46534  0.39357  Biso   1.000  C
  C499     1.0000 0.32661  0.44429  0.40730  Biso   1.000  C
  C500     1.0000 0.30193  0.43518  0.39941  Biso   1.000  C
  H356     1.0000 0.29200  0.44510  0.38600  Biso   1.000  H
  C501     1.0000 0.22253  0.35153  0.37491  Biso   1.000  C
  H357     1.0000 0.23850  0.34120  0.37920  Biso   1.000  H
  C502     1.0000 0.19887  0.34070  0.36359  Biso   1.000  C
  H358     1.0000 0.19760  0.32170  0.35910  Biso   1.000  H
  C503     1.0000 0.17310  0.38760  0.36291  Biso   1.000  C
  H359     1.0000 0.15690  0.39770  0.35840  Biso   1.000  H
  C504     1.0000 0.19810  0.39780  0.37484  Biso   1.000  C
  H360     1.0000 0.19970  0.41680  0.37920  Biso   1.000  H
  O145     1.0000 0.86617  0.02696  0.59675  Biso   1.000  O
  O146     1.0000 0.83059  0.02786  0.63132  Biso   1.000  O
  C505     1.0000 0.84506  0.03466  0.60643  Biso   1.000  C
  C506     1.0000 0.82661  0.05571  0.59270  Biso   1.000  C
  C507     1.0000 0.80193  0.06482  0.60059  Biso   1.000  C
  H361     1.0000 0.79200  0.05490  0.61400  Biso   1.000  H
  C508     1.0000 0.72253  0.14847  0.62509  Biso   1.000  C
  H362     1.0000 0.73850  0.15880  0.62080  Biso   1.000  H
  C509     1.0000 0.69887  0.15930  0.63641  Biso   1.000  C
  H363     1.0000 0.69760  0.17830  0.64090  Biso   1.000  H
  C510     1.0000 0.67310  0.11240  0.63709  Biso   1.000  C
  H364     1.0000 0.65690  0.10230  0.64160  Biso   1.000  H
  C511     1.0000 0.69810  0.10220  0.62516  Biso   1.000  C
  H365     1.0000 0.69970  0.08320  0.62080  Biso   1.000  H
  O147     1.0000 0.86617  0.52696  0.09675  Biso   1.000  O
  O148     1.0000 0.83059  0.52786  0.13132  Biso   1.000  O
  C512     1.0000 0.84506  0.53466  0.10643  Biso   1.000  C
  C513     1.0000 0.82661  0.55571  0.09270  Biso   1.000  C
  C514     1.0000 0.80193  0.56482  0.10059  Biso   1.000  C
  H366     1.0000 0.79200  0.55490  0.11400  Biso   1.000  H
  C515     1.0000 0.72253  0.64847  0.12509  Biso   1.000  C
  H367     1.0000 0.73850  0.65880  0.12080  Biso   1.000  H
  C516     1.0000 0.69887  0.65930  0.13641  Biso   1.000  C
  H368     1.0000 0.69760  0.67830  0.14090  Biso   1.000  H
  C517     1.0000 0.67310  0.61240  0.13709  Biso   1.000  C
  H369     1.0000 0.65690  0.60230  0.14160  Biso   1.000  H
  C518     1.0000 0.69810  0.60220  0.12516  Biso   1.000  C
  H370     1.0000 0.69970  0.58320  0.12080  Biso   1.000  H
  O149     1.0000 0.36617  0.02696  0.09675  Biso   1.000  O
  O150     1.0000 0.33059  0.02786  0.13132  Biso   1.000  O
  C519     1.0000 0.34506  0.03466  0.10643  Biso   1.000  C
  C520     1.0000 0.32661  0.05571  0.09270  Biso   1.000  C
  C521     1.0000 0.30193  0.06482  0.10059  Biso   1.000  C
  H371     1.0000 0.29200  0.05490  0.11400  Biso   1.000  H
  C522     1.0000 0.22253  0.14847  0.12509  Biso   1.000  C
  H372     1.0000 0.23850  0.15880  0.12080  Biso   1.000  H
  C523     1.0000 0.19887  0.15930  0.13641  Biso   1.000  C
  H373     1.0000 0.19760  0.17830  0.14090  Biso   1.000  H
  C524     1.0000 0.17310  0.11240  0.13709  Biso   1.000  C
  H374     1.0000 0.15690  0.10230  0.14160  Biso   1.000  H
  C525     1.0000 0.19810  0.10220  0.12516  Biso   1.000  C
  H375     1.0000 0.19970  0.08320  0.12080  Biso   1.000  H
  O151     1.0000 0.36617  0.52696  0.59675  Biso   1.000  O
  O152     1.0000 0.33059  0.52786  0.63132  Biso   1.000  O
  C526     1.0000 0.34506  0.53466  0.60643  Biso   1.000  C
  C527     1.0000 0.32661  0.55571  0.59270  Biso   1.000  C
  C528     1.0000 0.30193  0.56482  0.60059  Biso   1.000  C
  H376     1.0000 0.29200  0.55490  0.61400  Biso   1.000  H
  C529     1.0000 0.22253  0.64847  0.62509  Biso   1.000  C
  H377     1.0000 0.23850  0.65880  0.62080  Biso   1.000  H
  C530     1.0000 0.19887  0.65930  0.63641  Biso   1.000  C
  H378     1.0000 0.19760  0.67830  0.64090  Biso   1.000  H
  C531     1.0000 0.17310  0.61240  0.63709  Biso   1.000  C
  H379     1.0000 0.15690  0.60230  0.64160  Biso   1.000  H
  C532     1.0000 0.19810  0.60220  0.62516  Biso   1.000  C
  H380     1.0000 0.19970  0.58320  0.62080  Biso   1.000  H
  O153     1.0000 0.13383  0.02696  0.40325  Biso   1.000  O
  O154     1.0000 0.16941  0.02786  0.36868  Biso   1.000  O
  C533     1.0000 0.15494  0.03466  0.39357  Biso   1.000  C
  C534     1.0000 0.17339  0.05571  0.40730  Biso   1.000  C
  C535     1.0000 0.19807  0.06482  0.39941  Biso   1.000  C
  H381     1.0000 0.20800  0.05490  0.38600  Biso   1.000  H
  C536     1.0000 0.27747  0.14847  0.37491  Biso   1.000  C
  H382     1.0000 0.26150  0.15880  0.37920  Biso   1.000  H
  C537     1.0000 0.30113  0.15930  0.36359  Biso   1.000  C
  H383     1.0000 0.30240  0.17830  0.35910  Biso   1.000  H
  C538     1.0000 0.32690  0.11240  0.36291  Biso   1.000  C
  H384     1.0000 0.34310  0.10230  0.35840  Biso   1.000  H
  C539     1.0000 0.30190  0.10220  0.37484  Biso   1.000  C
  H385     1.0000 0.30030  0.08320  0.37920  Biso   1.000  H
  O155     1.0000 0.13383  0.52696  0.90325  Biso   1.000  O
  O156     1.0000 0.16941  0.52786  0.86868  Biso   1.000  O
  C540     1.0000 0.15494  0.53466  0.89357  Biso   1.000  C
  C541     1.0000 0.17339  0.55571  0.90730  Biso   1.000  C
  C542     1.0000 0.19807  0.56482  0.89941  Biso   1.000  C
  H386     1.0000 0.20800  0.55490  0.88600  Biso   1.000  H
  C543     1.0000 0.27747  0.64847  0.87491  Biso   1.000  C
  H387     1.0000 0.26150  0.65880  0.87920  Biso   1.000  H
  C544     1.0000 0.30113  0.65930  0.86359  Biso   1.000  C
  H388     1.0000 0.30240  0.67830  0.85910  Biso   1.000  H
  C545     1.0000 0.32690  0.61240  0.86291  Biso   1.000  C
  H389     1.0000 0.34310  0.60230  0.85840  Biso   1.000  H
  C546     1.0000 0.30190  0.60220  0.87484  Biso   1.000  C
  H390     1.0000 0.30030  0.58320  0.87920  Biso   1.000  H
  O157     1.0000 0.63383  0.02696  0.90325  Biso   1.000  O
  O158     1.0000 0.66941  0.02786  0.86868  Biso   1.000  O
  C547     1.0000 0.65494  0.03466  0.89357  Biso   1.000  C
  C548     1.0000 0.67339  0.05571  0.90730  Biso   1.000  C
  C549     1.0000 0.69807  0.06482  0.89941  Biso   1.000  C
  H391     1.0000 0.70800  0.05490  0.88600  Biso   1.000  H
  C550     1.0000 0.77747  0.14847  0.87491  Biso   1.000  C
  H392     1.0000 0.76150  0.15880  0.87920  Biso   1.000  H
  C551     1.0000 0.80113  0.15930  0.86359  Biso   1.000  C
  H393     1.0000 0.80240  0.17830  0.85910  Biso   1.000  H
  C552     1.0000 0.82690  0.11240  0.86291  Biso   1.000  C
  H394     1.0000 0.84310  0.10230  0.85840  Biso   1.000  H
  C553     1.0000 0.80190  0.10220  0.87484  Biso   1.000  C
  H395     1.0000 0.80030  0.08320  0.87920  Biso   1.000  H
  O159     1.0000 0.63383  0.52696  0.40325  Biso   1.000  O
  O160     1.0000 0.66941  0.52786  0.36868  Biso   1.000  O
  C554     1.0000 0.65494  0.53466  0.39357  Biso   1.000  C
  C555     1.0000 0.67339  0.55571  0.40730  Biso   1.000  C
  C556     1.0000 0.69807  0.56482  0.39941  Biso   1.000  C
  H396     1.0000 0.70800  0.55490  0.38600  Biso   1.000  H
  C557     1.0000 0.77747  0.64847  0.37491  Biso   1.000  C
  H397     1.0000 0.76150  0.65880  0.37920  Biso   1.000  H
  C558     1.0000 0.80113  0.65930  0.36359  Biso   1.000  C
  H398     1.0000 0.80240  0.67830  0.35910  Biso   1.000  H
  C559     1.0000 0.82690  0.61240  0.36291  Biso   1.000  C
  H399     1.0000 0.84310  0.60230  0.35840  Biso   1.000  H
  C560     1.0000 0.80190  0.60220  0.37484  Biso   1.000  C
  H400     1.0000 0.80030  0.58320  0.37920  Biso   1.000  H
  O161     1.0000 0.97304  0.40325  0.86617  Biso   1.000  O
  O162     1.0000 0.97214  0.36868  0.83059  Biso   1.000  O
  C561     1.0000 0.96534  0.39357  0.84506  Biso   1.000  C
  C562     1.0000 0.94429  0.40730  0.82661  Biso   1.000  C
  C563     1.0000 0.93518  0.39941  0.80193  Biso   1.000  C
  H401     1.0000 0.94510  0.38600  0.79200  Biso   1.000  H
  C564     1.0000 0.85153  0.37491  0.72253  Biso   1.000  C
  H402     1.0000 0.84120  0.37920  0.73850  Biso   1.000  H
  C565     1.0000 0.84070  0.36359  0.69887  Biso   1.000  C
  H403     1.0000 0.82170  0.35910  0.69760  Biso   1.000  H
  C566     1.0000 0.88760  0.36291  0.67310  Biso   1.000  C
  H404     1.0000 0.89770  0.35840  0.65690  Biso   1.000  H
  C567     1.0000 0.89780  0.37484  0.69810  Biso   1.000  C
  H405     1.0000 0.91680  0.37920  0.69970  Biso   1.000  H
  O163     1.0000 0.97304  0.90325  0.36617  Biso   1.000  O
  O164     1.0000 0.97214  0.86868  0.33059  Biso   1.000  O
  C568     1.0000 0.96534  0.89357  0.34506  Biso   1.000  C
  C569     1.0000 0.94429  0.90730  0.32661  Biso   1.000  C
  C570     1.0000 0.93518  0.89941  0.30193  Biso   1.000  C
  H406     1.0000 0.94510  0.88600  0.29200  Biso   1.000  H
  C571     1.0000 0.85153  0.87491  0.22253  Biso   1.000  C
  H407     1.0000 0.84120  0.87920  0.23850  Biso   1.000  H
  C572     1.0000 0.84070  0.86359  0.19887  Biso   1.000  C
  H408     1.0000 0.82170  0.85910  0.19760  Biso   1.000  H
  C573     1.0000 0.88760  0.86291  0.17310  Biso   1.000  C
  H409     1.0000 0.89770  0.85840  0.15690  Biso   1.000  H
  C574     1.0000 0.89780  0.87484  0.19810  Biso   1.000  C
  H410     1.0000 0.91680  0.87920  0.19970  Biso   1.000  H
  O165     1.0000 0.47304  0.40325  0.36617  Biso   1.000  O
  O166     1.0000 0.47214  0.36868  0.33059  Biso   1.000  O
  C575     1.0000 0.46534  0.39357  0.34506  Biso   1.000  C
  C576     1.0000 0.44429  0.40730  0.32661  Biso   1.000  C
  C577     1.0000 0.43518  0.39941  0.30193  Biso   1.000  C
  H411     1.0000 0.44510  0.38600  0.29200  Biso   1.000  H
  C578     1.0000 0.35153  0.37491  0.22253  Biso   1.000  C
  H412     1.0000 0.34120  0.37920  0.23850  Biso   1.000  H
  C579     1.0000 0.34070  0.36359  0.19887  Biso   1.000  C
  H413     1.0000 0.32170  0.35910  0.19760  Biso   1.000  H
  C580     1.0000 0.38760  0.36291  0.17310  Biso   1.000  C
  H414     1.0000 0.39770  0.35840  0.15690  Biso   1.000  H
  C581     1.0000 0.39780  0.37484  0.19810  Biso   1.000  C
  H415     1.0000 0.41680  0.37920  0.19970  Biso   1.000  H
  O167     1.0000 0.47304  0.90325  0.86617  Biso   1.000  O
  O168     1.0000 0.47214  0.86868  0.83059  Biso   1.000  O
  C582     1.0000 0.46534  0.89357  0.84506  Biso   1.000  C
  C583     1.0000 0.44429  0.90730  0.82661  Biso   1.000  C
  C584     1.0000 0.43518  0.89941  0.80193  Biso   1.000  C
  H416     1.0000 0.44510  0.88600  0.79200  Biso   1.000  H
  C585     1.0000 0.35153  0.87491  0.72253  Biso   1.000  C
  H417     1.0000 0.34120  0.87920  0.73850  Biso   1.000  H
  C586     1.0000 0.34070  0.86359  0.69887  Biso   1.000  C
  H418     1.0000 0.32170  0.85910  0.69760  Biso   1.000  H
  C587     1.0000 0.38760  0.86291  0.67310  Biso   1.000  C
  H419     1.0000 0.39770  0.85840  0.65690  Biso   1.000  H
  C588     1.0000 0.39780  0.87484  0.69810  Biso   1.000  C
  H420     1.0000 0.41680  0.87920  0.69970  Biso   1.000  H
  O169     1.0000 0.97304  0.59675  0.13383  Biso   1.000  O
  O170     1.0000 0.97214  0.63132  0.16941  Biso   1.000  O
  C589     1.0000 0.96534  0.60643  0.15494  Biso   1.000  C
  C590     1.0000 0.94429  0.59270  0.17339  Biso   1.000  C
  C591     1.0000 0.93518  0.60059  0.19807  Biso   1.000  C
  H421     1.0000 0.94510  0.61400  0.20800  Biso   1.000  H
  C592     1.0000 0.85153  0.62509  0.27747  Biso   1.000  C
  H422     1.0000 0.84120  0.62080  0.26150  Biso   1.000  H
  C593     1.0000 0.84070  0.63641  0.30113  Biso   1.000  C
  H423     1.0000 0.82170  0.64090  0.30240  Biso   1.000  H
  C594     1.0000 0.88760  0.63709  0.32690  Biso   1.000  C
  H424     1.0000 0.89770  0.64160  0.34310  Biso   1.000  H
  C595     1.0000 0.89780  0.62516  0.30190  Biso   1.000  C
  H425     1.0000 0.91680  0.62080  0.30030  Biso   1.000  H
  O171     1.0000 0.97304  0.09675  0.63383  Biso   1.000  O
  O172     1.0000 0.97214  0.13132  0.66941  Biso   1.000  O
  C596     1.0000 0.96534  0.10643  0.65494  Biso   1.000  C
  C597     1.0000 0.94429  0.09270  0.67339  Biso   1.000  C
  C598     1.0000 0.93518  0.10059  0.69807  Biso   1.000  C
  H426     1.0000 0.94510  0.11400  0.70800  Biso   1.000  H
  C599     1.0000 0.85153  0.12509  0.77747  Biso   1.000  C
  H427     1.0000 0.84120  0.12080  0.76150  Biso   1.000  H
  C600     1.0000 0.84070  0.13641  0.80113  Biso   1.000  C
  H428     1.0000 0.82170  0.14090  0.80240  Biso   1.000  H
  C601     1.0000 0.88760  0.13709  0.82690  Biso   1.000  C
  H429     1.0000 0.89770  0.14160  0.84310  Biso   1.000  H
  C602     1.0000 0.89780  0.12516  0.80190  Biso   1.000  C
  H430     1.0000 0.91680  0.12080  0.80030  Biso   1.000  H
  O173     1.0000 0.47304  0.59675  0.63383  Biso   1.000  O
  O174     1.0000 0.47214  0.63132  0.66941  Biso   1.000  O
  C603     1.0000 0.46534  0.60643  0.65494  Biso   1.000  C
  C604     1.0000 0.44429  0.59270  0.67339  Biso   1.000  C
  C605     1.0000 0.43518  0.60059  0.69807  Biso   1.000  C
  H431     1.0000 0.44510  0.61400  0.70800  Biso   1.000  H
  C606     1.0000 0.35153  0.62509  0.77747  Biso   1.000  C
  H432     1.0000 0.34120  0.62080  0.76150  Biso   1.000  H
  C607     1.0000 0.34070  0.63641  0.80113  Biso   1.000  C
  H433     1.0000 0.32170  0.64090  0.80240  Biso   1.000  H
  C608     1.0000 0.38760  0.63709  0.82690  Biso   1.000  C
  H434     1.0000 0.39770  0.64160  0.84310  Biso   1.000  H
  C609     1.0000 0.39780  0.62516  0.80190  Biso   1.000  C
  H435     1.0000 0.41680  0.62080  0.80030  Biso   1.000  H
  O175     1.0000 0.47304  0.09675  0.13383  Biso   1.000  O
  O176     1.0000 0.47214  0.13132  0.16941  Biso   1.000  O
  C610     1.0000 0.46534  0.10643  0.15494  Biso   1.000  C
  C611     1.0000 0.44429  0.09270  0.17339  Biso   1.000  C
  C612     1.0000 0.43518  0.10059  0.19807  Biso   1.000  C
  H436     1.0000 0.44510  0.11400  0.20800  Biso   1.000  H
  C613     1.0000 0.35153  0.12509  0.27747  Biso   1.000  C
  H437     1.0000 0.34120  0.12080  0.26150  Biso   1.000  H
  C614     1.0000 0.34070  0.13641  0.30113  Biso   1.000  C
  H438     1.0000 0.32170  0.14090  0.30240  Biso   1.000  H
  C615     1.0000 0.38760  0.13709  0.32690  Biso   1.000  C
  H439     1.0000 0.39770  0.14160  0.34310  Biso   1.000  H
  C616     1.0000 0.39780  0.12516  0.30190  Biso   1.000  C
  H440     1.0000 0.41680  0.12080  0.30030  Biso   1.000  H
  O177     1.0000 0.02696  0.40325  0.13383  Biso   1.000  O
  O178     1.0000 0.02786  0.36868  0.16941  Biso   1.000  O
  C617     1.0000 0.03466  0.39357  0.15494  Biso   1.000  C
  C618     1.0000 0.05571  0.40730  0.17339  Biso   1.000  C
  C619     1.0000 0.06482  0.39941  0.19807  Biso   1.000  C
  H441     1.0000 0.05490  0.38600  0.20800  Biso   1.000  H
  C620     1.0000 0.14847  0.37491  0.27747  Biso   1.000  C
  H442     1.0000 0.15880  0.37920  0.26150  Biso   1.000  H
  C621     1.0000 0.15930  0.36359  0.30113  Biso   1.000  C
  H443     1.0000 0.17830  0.35910  0.30240  Biso   1.000  H
  C622     1.0000 0.11240  0.36291  0.32690  Biso   1.000  C
  H444     1.0000 0.10230  0.35840  0.34310  Biso   1.000  H
  C623     1.0000 0.10220  0.37484  0.30190  Biso   1.000  C
  H445     1.0000 0.08320  0.37920  0.30030  Biso   1.000  H
  O179     1.0000 0.02696  0.90325  0.63383  Biso   1.000  O
  O180     1.0000 0.02786  0.86868  0.66941  Biso   1.000  O
  C624     1.0000 0.03466  0.89357  0.65494  Biso   1.000  C
  C625     1.0000 0.05571  0.90730  0.67339  Biso   1.000  C
  C626     1.0000 0.06482  0.89941  0.69807  Biso   1.000  C
  H446     1.0000 0.05490  0.88600  0.70800  Biso   1.000  H
  C627     1.0000 0.14847  0.87491  0.77747  Biso   1.000  C
  H447     1.0000 0.15880  0.87920  0.76150  Biso   1.000  H
  C628     1.0000 0.15930  0.86359  0.80113  Biso   1.000  C
  H448     1.0000 0.17830  0.85910  0.80240  Biso   1.000  H
  C629     1.0000 0.11240  0.86291  0.82690  Biso   1.000  C
  H449     1.0000 0.10230  0.85840  0.84310  Biso   1.000  H
  C630     1.0000 0.10220  0.87484  0.80190  Biso   1.000  C
  H450     1.0000 0.08320  0.87920  0.80030  Biso   1.000  H
  O181     1.0000 0.52696  0.40325  0.63383  Biso   1.000  O
  O182     1.0000 0.52786  0.36868  0.66941  Biso   1.000  O
  C631     1.0000 0.53466  0.39357  0.65494  Biso   1.000  C
  C632     1.0000 0.55571  0.40730  0.67339  Biso   1.000  C
  C633     1.0000 0.56482  0.39941  0.69807  Biso   1.000  C
  H451     1.0000 0.55490  0.38600  0.70800  Biso   1.000  H
  C634     1.0000 0.64847  0.37491  0.77747  Biso   1.000  C
  H452     1.0000 0.65880  0.37920  0.76150  Biso   1.000  H
  C635     1.0000 0.65930  0.36359  0.80113  Biso   1.000  C
  H453     1.0000 0.67830  0.35910  0.80240  Biso   1.000  H
  C636     1.0000 0.61240  0.36291  0.82690  Biso   1.000  C
  H454     1.0000 0.60230  0.35840  0.84310  Biso   1.000  H
  C637     1.0000 0.60220  0.37484  0.80190  Biso   1.000  C
  H455     1.0000 0.58320  0.37920  0.80030  Biso   1.000  H
  O183     1.0000 0.52696  0.90325  0.13383  Biso   1.000  O
  O184     1.0000 0.52786  0.86868  0.16941  Biso   1.000  O
  C638     1.0000 0.53466  0.89357  0.15494  Biso   1.000  C
  C639     1.0000 0.55571  0.90730  0.17339  Biso   1.000  C
  C640     1.0000 0.56482  0.89941  0.19807  Biso   1.000  C
  H456     1.0000 0.55490  0.88600  0.20800  Biso   1.000  H
  C641     1.0000 0.64847  0.87491  0.27747  Biso   1.000  C
  H457     1.0000 0.65880  0.87920  0.26150  Biso   1.000  H
  C642     1.0000 0.65930  0.86359  0.30113  Biso   1.000  C
  H458     1.0000 0.67830  0.85910  0.30240  Biso   1.000  H
  C643     1.0000 0.61240  0.86291  0.32690  Biso   1.000  C
  H459     1.0000 0.60230  0.85840  0.34310  Biso   1.000  H
  C644     1.0000 0.60220  0.87484  0.30190  Biso   1.000  C
  H460     1.0000 0.58320  0.87920  0.30030  Biso   1.000  H
  O185     1.0000 0.02696  0.59675  0.86617  Biso   1.000  O
  O186     1.0000 0.02786  0.63132  0.83059  Biso   1.000  O
  C645     1.0000 0.03466  0.60643  0.84506  Biso   1.000  C
  C646     1.0000 0.05571  0.59270  0.82661  Biso   1.000  C
  C647     1.0000 0.06482  0.60059  0.80193  Biso   1.000  C
  H461     1.0000 0.05490  0.61400  0.79200  Biso   1.000  H
  C648     1.0000 0.14847  0.62509  0.72253  Biso   1.000  C
  H462     1.0000 0.15880  0.62080  0.73850  Biso   1.000  H
  C649     1.0000 0.15930  0.63641  0.69887  Biso   1.000  C
  H463     1.0000 0.17830  0.64090  0.69760  Biso   1.000  H
  C650     1.0000 0.11240  0.63709  0.67310  Biso   1.000  C
  H464     1.0000 0.10230  0.64160  0.65690  Biso   1.000  H
  C651     1.0000 0.10220  0.62516  0.69810  Biso   1.000  C
  H465     1.0000 0.08320  0.62080  0.69970  Biso   1.000  H
  O187     1.0000 0.02696  0.09675  0.36617  Biso   1.000  O
  O188     1.0000 0.02786  0.13132  0.33059  Biso   1.000  O
  C652     1.0000 0.03466  0.10643  0.34506  Biso   1.000  C
  C653     1.0000 0.05571  0.09270  0.32661  Biso   1.000  C
  C654     1.0000 0.06482  0.10059  0.30193  Biso   1.000  C
  H466     1.0000 0.05490  0.11400  0.29200  Biso   1.000  H
  C655     1.0000 0.14847  0.12509  0.22253  Biso   1.000  C
  H467     1.0000 0.15880  0.12080  0.23850  Biso   1.000  H
  C656     1.0000 0.15930  0.13641  0.19887  Biso   1.000  C
  H468     1.0000 0.17830  0.14090  0.19760  Biso   1.000  H
  C657     1.0000 0.11240  0.13709  0.17310  Biso   1.000  C
  H469     1.0000 0.10230  0.14160  0.15690  Biso   1.000  H
  C658     1.0000 0.10220  0.12516  0.19810  Biso   1.000  C
  H470     1.0000 0.08320  0.12080  0.19970  Biso   1.000  H
  O189     1.0000 0.52696  0.59675  0.36617  Biso   1.000  O
  O190     1.0000 0.52786  0.63132  0.33059  Biso   1.000  O
  C659     1.0000 0.53466  0.60643  0.34506  Biso   1.000  C
  C660     1.0000 0.55571  0.59270  0.32661  Biso   1.000  C
  C661     1.0000 0.56482  0.60059  0.30193  Biso   1.000  C
  H471     1.0000 0.55490  0.61400  0.29200  Biso   1.000  H
  C662     1.0000 0.64847  0.62509  0.22253  Biso   1.000  C
  H472     1.0000 0.65880  0.62080  0.23850  Biso   1.000  H
  C663     1.0000 0.65930  0.63641  0.19887  Biso   1.000  C
  H473     1.0000 0.67830  0.64090  0.19760  Biso   1.000  H
  C664     1.0000 0.61240  0.63709  0.17310  Biso   1.000  C
  H474     1.0000 0.60230  0.64160  0.15690  Biso   1.000  H
  C665     1.0000 0.60220  0.62516  0.19810  Biso   1.000  C
  H475     1.0000 0.58320  0.62080  0.19970  Biso   1.000  H
  O191     1.0000 0.52696  0.09675  0.86617  Biso   1.000  O
  O192     1.0000 0.52786  0.13132  0.83059  Biso   1.000  O
  C666     1.0000 0.53466  0.10643  0.84506  Biso   1.000  C
  C667     1.0000 0.55571  0.09270  0.82661  Biso   1.000  C
  C668     1.0000 0.56482  0.10059  0.80193  Biso   1.000  C
  H476     1.0000 0.55490  0.11400  0.79200  Biso   1.000  H
  C669     1.0000 0.64847  0.12509  0.72253  Biso   1.000  C
  H477     1.0000 0.65880  0.12080  0.73850  Biso   1.000  H
  C670     1.0000 0.65930  0.13641  0.69887  Biso   1.000  C
  H478     1.0000 0.67830  0.14090  0.69760  Biso   1.000  H
  C671     1.0000 0.61240  0.13709  0.67310  Biso   1.000  C
  H479     1.0000 0.60230  0.14160  0.65690  Biso   1.000  H
  C672     1.0000 0.60220  0.12516  0.69810  Biso   1.000  C
  H480     1.0000 0.58320  0.12080  0.69970  Biso   1.000  H
  O193     1.0000 0.86617  0.59675  0.02696  Biso   1.000  O
  O194     1.0000 0.83059  0.63132  0.02786  Biso   1.000  O
  C673     1.0000 0.84506  0.60643  0.03466  Biso   1.000  C
  C674     1.0000 0.82661  0.59270  0.05571  Biso   1.000  C
  C675     1.0000 0.80193  0.60059  0.06482  Biso   1.000  C
  H481     1.0000 0.79200  0.61400  0.05490  Biso   1.000  H
  C676     1.0000 0.72253  0.62509  0.14847  Biso   1.000  C
  H482     1.0000 0.73850  0.62080  0.15880  Biso   1.000  H
  C677     1.0000 0.69887  0.63641  0.15930  Biso   1.000  C
  H483     1.0000 0.69760  0.64090  0.17830  Biso   1.000  H
  C678     1.0000 0.67310  0.63709  0.11240  Biso   1.000  C
  H484     1.0000 0.65690  0.64160  0.10230  Biso   1.000  H
  C679     1.0000 0.69810  0.62516  0.10220  Biso   1.000  C
  H485     1.0000 0.69970  0.62080  0.08320  Biso   1.000  H
  O195     1.0000 0.86617  0.09675  0.52696  Biso   1.000  O
  O196     1.0000 0.83059  0.13132  0.52786  Biso   1.000  O
  C680     1.0000 0.84506  0.10643  0.53466  Biso   1.000  C
  C681     1.0000 0.82661  0.09270  0.55571  Biso   1.000  C
  C682     1.0000 0.80193  0.10059  0.56482  Biso   1.000  C
  H486     1.0000 0.79200  0.11400  0.55490  Biso   1.000  H
  C683     1.0000 0.72253  0.12509  0.64847  Biso   1.000  C
  H487     1.0000 0.73850  0.12080  0.65880  Biso   1.000  H
  C684     1.0000 0.69887  0.13641  0.65930  Biso   1.000  C
  H488     1.0000 0.69760  0.14090  0.67830  Biso   1.000  H
  C685     1.0000 0.67310  0.13709  0.61240  Biso   1.000  C
  H489     1.0000 0.65690  0.14160  0.60230  Biso   1.000  H
  C686     1.0000 0.69810  0.12516  0.60220  Biso   1.000  C
  H490     1.0000 0.69970  0.12080  0.58320  Biso   1.000  H
  O197     1.0000 0.36617  0.59675  0.52696  Biso   1.000  O
  O198     1.0000 0.33059  0.63132  0.52786  Biso   1.000  O
  C687     1.0000 0.34506  0.60643  0.53466  Biso   1.000  C
  C688     1.0000 0.32661  0.59270  0.55571  Biso   1.000  C
  C689     1.0000 0.30193  0.60059  0.56482  Biso   1.000  C
  H491     1.0000 0.29200  0.61400  0.55490  Biso   1.000  H
  C690     1.0000 0.22253  0.62509  0.64847  Biso   1.000  C
  H492     1.0000 0.23850  0.62080  0.65880  Biso   1.000  H
  C691     1.0000 0.19887  0.63641  0.65930  Biso   1.000  C
  H493     1.0000 0.19760  0.64090  0.67830  Biso   1.000  H
  C692     1.0000 0.17310  0.63709  0.61240  Biso   1.000  C
  H494     1.0000 0.15690  0.64160  0.60230  Biso   1.000  H
  C693     1.0000 0.19810  0.62516  0.60220  Biso   1.000  C
  H495     1.0000 0.19970  0.62080  0.58320  Biso   1.000  H
  O199     1.0000 0.36617  0.09675  0.02696  Biso   1.000  O
  O200     1.0000 0.33059  0.13132  0.02786  Biso   1.000  O
  C694     1.0000 0.34506  0.10643  0.03466  Biso   1.000  C
  C695     1.0000 0.32661  0.09270  0.05571  Biso   1.000  C
  C696     1.0000 0.30193  0.10059  0.06482  Biso   1.000  C
  H496     1.0000 0.29200  0.11400  0.05490  Biso   1.000  H
  C697     1.0000 0.22253  0.12509  0.14847  Biso   1.000  C
  H497     1.0000 0.23850  0.12080  0.15880  Biso   1.000  H
  C698     1.0000 0.19887  0.13641  0.15930  Biso   1.000  C
  H498     1.0000 0.19760  0.14090  0.17830  Biso   1.000  H
  C699     1.0000 0.17310  0.13709  0.11240  Biso   1.000  C
  H499     1.0000 0.15690  0.14160  0.10230  Biso   1.000  H
  C700     1.0000 0.19810  0.12516  0.10220  Biso   1.000  C
  H500     1.0000 0.19970  0.12080  0.08320  Biso   1.000  H
  O201     1.0000 0.13383  0.40325  0.02696  Biso   1.000  O
  O202     1.0000 0.16941  0.36868  0.02786  Biso   1.000  O
  C701     1.0000 0.15494  0.39357  0.03466  Biso   1.000  C
  C702     1.0000 0.17339  0.40730  0.05571  Biso   1.000  C
  C703     1.0000 0.19807  0.39941  0.06482  Biso   1.000  C
  H501     1.0000 0.20800  0.38600  0.05490  Biso   1.000  H
  C704     1.0000 0.27747  0.37491  0.14847  Biso   1.000  C
  H502     1.0000 0.26150  0.37920  0.15880  Biso   1.000  H
  C705     1.0000 0.30113  0.36359  0.15930  Biso   1.000  C
  H503     1.0000 0.30240  0.35910  0.17830  Biso   1.000  H
  C706     1.0000 0.32690  0.36291  0.11240  Biso   1.000  C
  H504     1.0000 0.34310  0.35840  0.10230  Biso   1.000  H
  C707     1.0000 0.30190  0.37484  0.10220  Biso   1.000  C
  H505     1.0000 0.30030  0.37920  0.08320  Biso   1.000  H
  O203     1.0000 0.13383  0.90325  0.52696  Biso   1.000  O
  O204     1.0000 0.16941  0.86868  0.52786  Biso   1.000  O
  C708     1.0000 0.15494  0.89357  0.53466  Biso   1.000  C
  C709     1.0000 0.17339  0.90730  0.55571  Biso   1.000  C
  C710     1.0000 0.19807  0.89941  0.56482  Biso   1.000  C
  H506     1.0000 0.20800  0.88600  0.55490  Biso   1.000  H
  C711     1.0000 0.27747  0.87491  0.64847  Biso   1.000  C
  H507     1.0000 0.26150  0.87920  0.65880  Biso   1.000  H
  C712     1.0000 0.30113  0.86359  0.65930  Biso   1.000  C
  H508     1.0000 0.30240  0.85910  0.67830  Biso   1.000  H
  C713     1.0000 0.32690  0.86291  0.61240  Biso   1.000  C
  H509     1.0000 0.34310  0.85840  0.60230  Biso   1.000  H
  C714     1.0000 0.30190  0.87484  0.60220  Biso   1.000  C
  H510     1.0000 0.30030  0.87920  0.58320  Biso   1.000  H
  O205     1.0000 0.63383  0.40325  0.52696  Biso   1.000  O
  O206     1.0000 0.66941  0.36868  0.52786  Biso   1.000  O
  C715     1.0000 0.65494  0.39357  0.53466  Biso   1.000  C
  C716     1.0000 0.67339  0.40730  0.55571  Biso   1.000  C
  C717     1.0000 0.69807  0.39941  0.56482  Biso   1.000  C
  H511     1.0000 0.70800  0.38600  0.55490  Biso   1.000  H
  C718     1.0000 0.77747  0.37491  0.64847  Biso   1.000  C
  H512     1.0000 0.76150  0.37920  0.65880  Biso   1.000  H
  C719     1.0000 0.80113  0.36359  0.65930  Biso   1.000  C
  H513     1.0000 0.80240  0.35910  0.67830  Biso   1.000  H
  C720     1.0000 0.82690  0.36291  0.61240  Biso   1.000  C
  H514     1.0000 0.84310  0.35840  0.60230  Biso   1.000  H
  C721     1.0000 0.80190  0.37484  0.60220  Biso   1.000  C
  H515     1.0000 0.80030  0.37920  0.58320  Biso   1.000  H
  O207     1.0000 0.63383  0.90325  0.02696  Biso   1.000  O
  O208     1.0000 0.66941  0.86868  0.02786  Biso   1.000  O
  C722     1.0000 0.65494  0.89357  0.03466  Biso   1.000  C
  C723     1.0000 0.67339  0.90730  0.05571  Biso   1.000  C
  C724     1.0000 0.69807  0.89941  0.06482  Biso   1.000  C
  H516     1.0000 0.70800  0.88600  0.05490  Biso   1.000  H
  C725     1.0000 0.77747  0.87491  0.14847  Biso   1.000  C
  H517     1.0000 0.76150  0.87920  0.15880  Biso   1.000  H
  C726     1.0000 0.80113  0.86359  0.15930  Biso   1.000  C
  H518     1.0000 0.80240  0.85910  0.17830  Biso   1.000  H
  C727     1.0000 0.82690  0.86291  0.11240  Biso   1.000  C
  H519     1.0000 0.84310  0.85840  0.10230  Biso   1.000  H
  C728     1.0000 0.80190  0.87484  0.10220  Biso   1.000  C
  H520     1.0000 0.80030  0.87920  0.08320  Biso   1.000  H
  O209     1.0000 0.13383  0.59675  0.97304  Biso   1.000  O
  O210     1.0000 0.16941  0.63132  0.97214  Biso   1.000  O
  C729     1.0000 0.15494  0.60643  0.96534  Biso   1.000  C
  C730     1.0000 0.17339  0.59270  0.94429  Biso   1.000  C
  C731     1.0000 0.19807  0.60059  0.93518  Biso   1.000  C
  H521     1.0000 0.20800  0.61400  0.94510  Biso   1.000  H
  C732     1.0000 0.27747  0.62509  0.85153  Biso   1.000  C
  H522     1.0000 0.26150  0.62080  0.84120  Biso   1.000  H
  C733     1.0000 0.30113  0.63641  0.84070  Biso   1.000  C
  H523     1.0000 0.30240  0.64090  0.82170  Biso   1.000  H
  C734     1.0000 0.32690  0.63709  0.88760  Biso   1.000  C
  H524     1.0000 0.34310  0.64160  0.89770  Biso   1.000  H
  C735     1.0000 0.30190  0.62516  0.89780  Biso   1.000  C
  H525     1.0000 0.30030  0.62080  0.91680  Biso   1.000  H
  O211     1.0000 0.13383  0.09675  0.47304  Biso   1.000  O
  O212     1.0000 0.16941  0.13132  0.47214  Biso   1.000  O
  C736     1.0000 0.15494  0.10643  0.46534  Biso   1.000  C
  C737     1.0000 0.17339  0.09270  0.44429  Biso   1.000  C
  C738     1.0000 0.19807  0.10059  0.43518  Biso   1.000  C
  H526     1.0000 0.20800  0.11400  0.44510  Biso   1.000  H
  C739     1.0000 0.27747  0.12509  0.35153  Biso   1.000  C
  H527     1.0000 0.26150  0.12080  0.34120  Biso   1.000  H
  C740     1.0000 0.30113  0.13641  0.34070  Biso   1.000  C
  H528     1.0000 0.30240  0.14090  0.32170  Biso   1.000  H
  C741     1.0000 0.32690  0.13709  0.38760  Biso   1.000  C
  H529     1.0000 0.34310  0.14160  0.39770  Biso   1.000  H
  C742     1.0000 0.30190  0.12516  0.39780  Biso   1.000  C
  H530     1.0000 0.30030  0.12080  0.41680  Biso   1.000  H
  O213     1.0000 0.63383  0.59675  0.47304  Biso   1.000  O
  O214     1.0000 0.66941  0.63132  0.47214  Biso   1.000  O
  C743     1.0000 0.65494  0.60643  0.46534  Biso   1.000  C
  C744     1.0000 0.67339  0.59270  0.44429  Biso   1.000  C
  C745     1.0000 0.69807  0.60059  0.43518  Biso   1.000  C
  H531     1.0000 0.70800  0.61400  0.44510  Biso   1.000  H
  C746     1.0000 0.77747  0.62509  0.35153  Biso   1.000  C
  H532     1.0000 0.76150  0.62080  0.34120  Biso   1.000  H
  C747     1.0000 0.80113  0.63641  0.34070  Biso   1.000  C
  H533     1.0000 0.80240  0.64090  0.32170  Biso   1.000  H
  C748     1.0000 0.82690  0.63709  0.38760  Biso   1.000  C
  H534     1.0000 0.84310  0.64160  0.39770  Biso   1.000  H
  C749     1.0000 0.80190  0.62516  0.39780  Biso   1.000  C
  H535     1.0000 0.80030  0.62080  0.41680  Biso   1.000  H
  O215     1.0000 0.63383  0.09675  0.97304  Biso   1.000  O
  O216     1.0000 0.66941  0.13132  0.97214  Biso   1.000  O
  C750     1.0000 0.65494  0.10643  0.96534  Biso   1.000  C
  C751     1.0000 0.67339  0.09270  0.94429  Biso   1.000  C
  C752     1.0000 0.69807  0.10059  0.93518  Biso   1.000  C
  H536     1.0000 0.70800  0.11400  0.94510  Biso   1.000  H
  C753     1.0000 0.77747  0.12509  0.85153  Biso   1.000  C
  H537     1.0000 0.76150  0.12080  0.84120  Biso   1.000  H
  C754     1.0000 0.80113  0.13641  0.84070  Biso   1.000  C
  H538     1.0000 0.80240  0.14090  0.82170  Biso   1.000  H
  C755     1.0000 0.82690  0.13709  0.88760  Biso   1.000  C
  H539     1.0000 0.84310  0.14160  0.89770  Biso   1.000  H
  C756     1.0000 0.80190  0.12516  0.89780  Biso   1.000  C
  H540     1.0000 0.80030  0.12080  0.91680  Biso   1.000  H
  O217     1.0000 0.86617  0.40325  0.97304  Biso   1.000  O
  O218     1.0000 0.83059  0.36868  0.97214  Biso   1.000  O
  C757     1.0000 0.84506  0.39357  0.96534  Biso   1.000  C
  C758     1.0000 0.82661  0.40730  0.94429  Biso   1.000  C
  C759     1.0000 0.80193  0.39941  0.93518  Biso   1.000  C
  H541     1.0000 0.79200  0.38600  0.94510  Biso   1.000  H
  C760     1.0000 0.72253  0.37491  0.85153  Biso   1.000  C
  H542     1.0000 0.73850  0.37920  0.84120  Biso   1.000  H
  C761     1.0000 0.69887  0.36359  0.84070  Biso   1.000  C
  H543     1.0000 0.69760  0.35910  0.82170  Biso   1.000  H
  C762     1.0000 0.67310  0.36291  0.88760  Biso   1.000  C
  H544     1.0000 0.65690  0.35840  0.89770  Biso   1.000  H
  C763     1.0000 0.69810  0.37484  0.89780  Biso   1.000  C
  H545     1.0000 0.69970  0.37920  0.91680  Biso   1.000  H
  O219     1.0000 0.86617  0.90325  0.47304  Biso   1.000  O
  O220     1.0000 0.83059  0.86868  0.47214  Biso   1.000  O
  C764     1.0000 0.84506  0.89357  0.46534  Biso   1.000  C
  C765     1.0000 0.82661  0.90730  0.44429  Biso   1.000  C
  C766     1.0000 0.80193  0.89941  0.43518  Biso   1.000  C
  H546     1.0000 0.79200  0.88600  0.44510  Biso   1.000  H
  C767     1.0000 0.72253  0.87491  0.35153  Biso   1.000  C
  H547     1.0000 0.73850  0.87920  0.34120  Biso   1.000  H
  C768     1.0000 0.69887  0.86359  0.34070  Biso   1.000  C
  H548     1.0000 0.69760  0.85910  0.32170  Biso   1.000  H
  C769     1.0000 0.67310  0.86291  0.38760  Biso   1.000  C
  H549     1.0000 0.65690  0.85840  0.39770  Biso   1.000  H
  C770     1.0000 0.69810  0.87484  0.39780  Biso   1.000  C
  H550     1.0000 0.69970  0.87920  0.41680  Biso   1.000  H
  O221     1.0000 0.36617  0.40325  0.47304  Biso   1.000  O
  O222     1.0000 0.33059  0.36868  0.47214  Biso   1.000  O
  C771     1.0000 0.34506  0.39357  0.46534  Biso   1.000  C
  C772     1.0000 0.32661  0.40730  0.44429  Biso   1.000  C
  C773     1.0000 0.30193  0.39941  0.43518  Biso   1.000  C
  H551     1.0000 0.29200  0.38600  0.44510  Biso   1.000  H
  C774     1.0000 0.22253  0.37491  0.35153  Biso   1.000  C
  H552     1.0000 0.23850  0.37920  0.34120  Biso   1.000  H
  C775     1.0000 0.19887  0.36359  0.34070  Biso   1.000  C
  H553     1.0000 0.19760  0.35910  0.32170  Biso   1.000  H
  C776     1.0000 0.17310  0.36291  0.38760  Biso   1.000  C
  H554     1.0000 0.15690  0.35840  0.39770  Biso   1.000  H
  C777     1.0000 0.19810  0.37484  0.39780  Biso   1.000  C
  H555     1.0000 0.19970  0.37920  0.41680  Biso   1.000  H
  O223     1.0000 0.36617  0.90325  0.97304  Biso   1.000  O
  O224     1.0000 0.33059  0.86868  0.97214  Biso   1.000  O
  C778     1.0000 0.34506  0.89357  0.96534  Biso   1.000  C
  C779     1.0000 0.32661  0.90730  0.94429  Biso   1.000  C
  C780     1.0000 0.30193  0.89941  0.93518  Biso   1.000  C
  H556     1.0000 0.29200  0.88600  0.94510  Biso   1.000  H
  C781     1.0000 0.22253  0.87491  0.85153  Biso   1.000  C
  H557     1.0000 0.23850  0.87920  0.84120  Biso   1.000  H
  C782     1.0000 0.19887  0.86359  0.84070  Biso   1.000  C
  H558     1.0000 0.19760  0.85910  0.82170  Biso   1.000  H
  C783     1.0000 0.17310  0.86291  0.88760  Biso   1.000  C
  H559     1.0000 0.15690  0.85840  0.89770  Biso   1.000  H
  C784     1.0000 0.19810  0.87484  0.89780  Biso   1.000  C
  H560     1.0000 0.19970  0.87920  0.91680  Biso   1.000  H
  O225     1.0000 0.02696  0.86617  0.59675  Biso   1.000  O
  O226     1.0000 0.02786  0.83059  0.63132  Biso   1.000  O
  C785     1.0000 0.03466  0.84506  0.60643  Biso   1.000  C
  C786     1.0000 0.05571  0.82661  0.59270  Biso   1.000  C
  C787     1.0000 0.06482  0.80193  0.60059  Biso   1.000  C
  H561     1.0000 0.05490  0.79200  0.61400  Biso   1.000  H
  C788     1.0000 0.14847  0.72253  0.62509  Biso   1.000  C
  H562     1.0000 0.15880  0.73850  0.62080  Biso   1.000  H
  C789     1.0000 0.15930  0.69887  0.63641  Biso   1.000  C
  H563     1.0000 0.17830  0.69760  0.64090  Biso   1.000  H
  C790     1.0000 0.11240  0.67310  0.63709  Biso   1.000  C
  H564     1.0000 0.10230  0.65690  0.64160  Biso   1.000  H
  C791     1.0000 0.10220  0.69810  0.62516  Biso   1.000  C
  H565     1.0000 0.08320  0.69970  0.62080  Biso   1.000  H
  O227     1.0000 0.02696  0.36617  0.09675  Biso   1.000  O
  O228     1.0000 0.02786  0.33059  0.13132  Biso   1.000  O
  C792     1.0000 0.03466  0.34506  0.10643  Biso   1.000  C
  C793     1.0000 0.05571  0.32661  0.09270  Biso   1.000  C
  C794     1.0000 0.06482  0.30193  0.10059  Biso   1.000  C
  H566     1.0000 0.05490  0.29200  0.11400  Biso   1.000  H
  C795     1.0000 0.14847  0.22253  0.12509  Biso   1.000  C
  H567     1.0000 0.15880  0.23850  0.12080  Biso   1.000  H
  C796     1.0000 0.15930  0.19887  0.13641  Biso   1.000  C
  H568     1.0000 0.17830  0.19760  0.14090  Biso   1.000  H
  C797     1.0000 0.11240  0.17310  0.13709  Biso   1.000  C
  H569     1.0000 0.10230  0.15690  0.14160  Biso   1.000  H
  C798     1.0000 0.10220  0.19810  0.12516  Biso   1.000  C
  H570     1.0000 0.08320  0.19970  0.12080  Biso   1.000  H
  O229     1.0000 0.52696  0.86617  0.09675  Biso   1.000  O
  O230     1.0000 0.52786  0.83059  0.13132  Biso   1.000  O
  C799     1.0000 0.53466  0.84506  0.10643  Biso   1.000  C
  C800     1.0000 0.55571  0.82661  0.09270  Biso   1.000  C
  C801     1.0000 0.56482  0.80193  0.10059  Biso   1.000  C
  H571     1.0000 0.55490  0.79200  0.11400  Biso   1.000  H
  C802     1.0000 0.64847  0.72253  0.12509  Biso   1.000  C
  H572     1.0000 0.65880  0.73850  0.12080  Biso   1.000  H
  C803     1.0000 0.65930  0.69887  0.13641  Biso   1.000  C
  H573     1.0000 0.67830  0.69760  0.14090  Biso   1.000  H
  C804     1.0000 0.61240  0.67310  0.13709  Biso   1.000  C
  H574     1.0000 0.60230  0.65690  0.14160  Biso   1.000  H
  C805     1.0000 0.60220  0.69810  0.12516  Biso   1.000  C
  H575     1.0000 0.58320  0.69970  0.12080  Biso   1.000  H
  O231     1.0000 0.52696  0.36617  0.59675  Biso   1.000  O
  O232     1.0000 0.52786  0.33059  0.63132  Biso   1.000  O
  C806     1.0000 0.53466  0.34506  0.60643  Biso   1.000  C
  C807     1.0000 0.55571  0.32661  0.59270  Biso   1.000  C
  C808     1.0000 0.56482  0.30193  0.60059  Biso   1.000  C
  H576     1.0000 0.55490  0.29200  0.61400  Biso   1.000  H
  C809     1.0000 0.64847  0.22253  0.62509  Biso   1.000  C
  H577     1.0000 0.65880  0.23850  0.62080  Biso   1.000  H
  C810     1.0000 0.65930  0.19887  0.63641  Biso   1.000  C
  H578     1.0000 0.67830  0.19760  0.64090  Biso   1.000  H
  C811     1.0000 0.61240  0.17310  0.63709  Biso   1.000  C
  H579     1.0000 0.60230  0.15690  0.64160  Biso   1.000  H
  C812     1.0000 0.60220  0.19810  0.62516  Biso   1.000  C
  H580     1.0000 0.58320  0.19970  0.62080  Biso   1.000  H
  O233     1.0000 0.02696  0.13383  0.40325  Biso   1.000  O
  O234     1.0000 0.02786  0.16941  0.36868  Biso   1.000  O
  C813     1.0000 0.03466  0.15494  0.39357  Biso   1.000  C
  C814     1.0000 0.05571  0.17339  0.40730  Biso   1.000  C
  C815     1.0000 0.06482  0.19807  0.39941  Biso   1.000  C
  H581     1.0000 0.05490  0.20800  0.38600  Biso   1.000  H
  C816     1.0000 0.14847  0.27747  0.37491  Biso   1.000  C
  H582     1.0000 0.15880  0.26150  0.37920  Biso   1.000  H
  C817     1.0000 0.15930  0.30113  0.36359  Biso   1.000  C
  H583     1.0000 0.17830  0.30240  0.35910  Biso   1.000  H
  C818     1.0000 0.11240  0.32690  0.36291  Biso   1.000  C
  H584     1.0000 0.10230  0.34310  0.35840  Biso   1.000  H
  C819     1.0000 0.10220  0.30190  0.37484  Biso   1.000  C
  H585     1.0000 0.08320  0.30030  0.37920  Biso   1.000  H
  O235     1.0000 0.02696  0.63383  0.90325  Biso   1.000  O
  O236     1.0000 0.02786  0.66941  0.86868  Biso   1.000  O
  C820     1.0000 0.03466  0.65494  0.89357  Biso   1.000  C
  C821     1.0000 0.05571  0.67339  0.90730  Biso   1.000  C
  C822     1.0000 0.06482  0.69807  0.89941  Biso   1.000  C
  H586     1.0000 0.05490  0.70800  0.88600  Biso   1.000  H
  C823     1.0000 0.14847  0.77747  0.87491  Biso   1.000  C
  H587     1.0000 0.15880  0.76150  0.87920  Biso   1.000  H
  C824     1.0000 0.15930  0.80113  0.86359  Biso   1.000  C
  H588     1.0000 0.17830  0.80240  0.85910  Biso   1.000  H
  C825     1.0000 0.11240  0.82690  0.86291  Biso   1.000  C
  H589     1.0000 0.10230  0.84310  0.85840  Biso   1.000  H
  C826     1.0000 0.10220  0.80190  0.87484  Biso   1.000  C
  H590     1.0000 0.08320  0.80030  0.87920  Biso   1.000  H
  O237     1.0000 0.52696  0.13383  0.90325  Biso   1.000  O
  O238     1.0000 0.52786  0.16941  0.86868  Biso   1.000  O
  C827     1.0000 0.53466  0.15494  0.89357  Biso   1.000  C
  C828     1.0000 0.55571  0.17339  0.90730  Biso   1.000  C
  C829     1.0000 0.56482  0.19807  0.89941  Biso   1.000  C
  H591     1.0000 0.55490  0.20800  0.88600  Biso   1.000  H
  C830     1.0000 0.64847  0.27747  0.87491  Biso   1.000  C
  H592     1.0000 0.65880  0.26150  0.87920  Biso   1.000  H
  C831     1.0000 0.65930  0.30113  0.86359  Biso   1.000  C
  H593     1.0000 0.67830  0.30240  0.85910  Biso   1.000  H
  C832     1.0000 0.61240  0.32690  0.86291  Biso   1.000  C
  H594     1.0000 0.60230  0.34310  0.85840  Biso   1.000  H
  C833     1.0000 0.60220  0.30190  0.87484  Biso   1.000  C
  H595     1.0000 0.58320  0.30030  0.87920  Biso   1.000  H
  O239     1.0000 0.52696  0.63383  0.40325  Biso   1.000  O
  O240     1.0000 0.52786  0.66941  0.36868  Biso   1.000  O
  C834     1.0000 0.53466  0.65494  0.39357  Biso   1.000  C
  C835     1.0000 0.55571  0.67339  0.40730  Biso   1.000  C
  C836     1.0000 0.56482  0.69807  0.39941  Biso   1.000  C
  H596     1.0000 0.55490  0.70800  0.38600  Biso   1.000  H
  C837     1.0000 0.64847  0.77747  0.37491  Biso   1.000  C
  H597     1.0000 0.65880  0.76150  0.37920  Biso   1.000  H
  C838     1.0000 0.65930  0.80113  0.36359  Biso   1.000  C
  H598     1.0000 0.67830  0.80240  0.35910  Biso   1.000  H
  C839     1.0000 0.61240  0.82690  0.36291  Biso   1.000  C
  H599     1.0000 0.60230  0.84310  0.35840  Biso   1.000  H
  C840     1.0000 0.60220  0.80190  0.37484  Biso   1.000  C
  H600     1.0000 0.58320  0.80030  0.37920  Biso   1.000  H
  O241     1.0000 0.97304  0.13383  0.59675  Biso   1.000  O
  O242     1.0000 0.97214  0.16941  0.63132  Biso   1.000  O
  C841     1.0000 0.96534  0.15494  0.60643  Biso   1.000  C
  C842     1.0000 0.94429  0.17339  0.59270  Biso   1.000  C
  C843     1.0000 0.93518  0.19807  0.60059  Biso   1.000  C
  H601     1.0000 0.94510  0.20800  0.61400  Biso   1.000  H
  C844     1.0000 0.85153  0.27747  0.62509  Biso   1.000  C
  H602     1.0000 0.84120  0.26150  0.62080  Biso   1.000  H
  C845     1.0000 0.84070  0.30113  0.63641  Biso   1.000  C
  H603     1.0000 0.82170  0.30240  0.64090  Biso   1.000  H
  C846     1.0000 0.88760  0.32690  0.63709  Biso   1.000  C
  H604     1.0000 0.89770  0.34310  0.64160  Biso   1.000  H
  C847     1.0000 0.89780  0.30190  0.62516  Biso   1.000  C
  H605     1.0000 0.91680  0.30030  0.62080  Biso   1.000  H
  O243     1.0000 0.97304  0.63383  0.09675  Biso   1.000  O
  O244     1.0000 0.97214  0.66941  0.13132  Biso   1.000  O
  C848     1.0000 0.96534  0.65494  0.10643  Biso   1.000  C
  C849     1.0000 0.94429  0.67339  0.09270  Biso   1.000  C
  C850     1.0000 0.93518  0.69807  0.10059  Biso   1.000  C
  H606     1.0000 0.94510  0.70800  0.11400  Biso   1.000  H
  C851     1.0000 0.85153  0.77747  0.12509  Biso   1.000  C
  H607     1.0000 0.84120  0.76150  0.12080  Biso   1.000  H
  C852     1.0000 0.84070  0.80113  0.13641  Biso   1.000  C
  H608     1.0000 0.82170  0.80240  0.14090  Biso   1.000  H
  C853     1.0000 0.88760  0.82690  0.13709  Biso   1.000  C
  H609     1.0000 0.89770  0.84310  0.14160  Biso   1.000  H
  C854     1.0000 0.89780  0.80190  0.12516  Biso   1.000  C
  H610     1.0000 0.91680  0.80030  0.12080  Biso   1.000  H
  O245     1.0000 0.47304  0.13383  0.09675  Biso   1.000  O
  O246     1.0000 0.47214  0.16941  0.13132  Biso   1.000  O
  C855     1.0000 0.46534  0.15494  0.10643  Biso   1.000  C
  C856     1.0000 0.44429  0.17339  0.09270  Biso   1.000  C
  C857     1.0000 0.43518  0.19807  0.10059  Biso   1.000  C
  H611     1.0000 0.44510  0.20800  0.11400  Biso   1.000  H
  C858     1.0000 0.35153  0.27747  0.12509  Biso   1.000  C
  H612     1.0000 0.34120  0.26150  0.12080  Biso   1.000  H
  C859     1.0000 0.34070  0.30113  0.13641  Biso   1.000  C
  H613     1.0000 0.32170  0.30240  0.14090  Biso   1.000  H
  C860     1.0000 0.38760  0.32690  0.13709  Biso   1.000  C
  H614     1.0000 0.39770  0.34310  0.14160  Biso   1.000  H
  C861     1.0000 0.39780  0.30190  0.12516  Biso   1.000  C
  H615     1.0000 0.41680  0.30030  0.12080  Biso   1.000  H
  O247     1.0000 0.47304  0.63383  0.59675  Biso   1.000  O
  O248     1.0000 0.47214  0.66941  0.63132  Biso   1.000  O
  C862     1.0000 0.46534  0.65494  0.60643  Biso   1.000  C
  C863     1.0000 0.44429  0.67339  0.59270  Biso   1.000  C
  C864     1.0000 0.43518  0.69807  0.60059  Biso   1.000  C
  H616     1.0000 0.44510  0.70800  0.61400  Biso   1.000  H
  C865     1.0000 0.35153  0.77747  0.62509  Biso   1.000  C
  H617     1.0000 0.34120  0.76150  0.62080  Biso   1.000  H
  C866     1.0000 0.34070  0.80113  0.63641  Biso   1.000  C
  H618     1.0000 0.32170  0.80240  0.64090  Biso   1.000  H
  C867     1.0000 0.38760  0.82690  0.63709  Biso   1.000  C
  H619     1.0000 0.39770  0.84310  0.64160  Biso   1.000  H
  C868     1.0000 0.39780  0.80190  0.62516  Biso   1.000  C
  H620     1.0000 0.41680  0.80030  0.62080  Biso   1.000  H
  O249     1.0000 0.97304  0.86617  0.40325  Biso   1.000  O
  O250     1.0000 0.97214  0.83059  0.36868  Biso   1.000  O
  C869     1.0000 0.96534  0.84506  0.39357  Biso   1.000  C
  C870     1.0000 0.94429  0.82661  0.40730  Biso   1.000  C
  C871     1.0000 0.93518  0.80193  0.39941  Biso   1.000  C
  H621     1.0000 0.94510  0.79200  0.38600  Biso   1.000  H
  C872     1.0000 0.85153  0.72253  0.37491  Biso   1.000  C
  H622     1.0000 0.84120  0.73850  0.37920  Biso   1.000  H
  C873     1.0000 0.84070  0.69887  0.36359  Biso   1.000  C
  H623     1.0000 0.82170  0.69760  0.35910  Biso   1.000  H
  C874     1.0000 0.88760  0.67310  0.36291  Biso   1.000  C
  H624     1.0000 0.89770  0.65690  0.35840  Biso   1.000  H
  C875     1.0000 0.89780  0.69810  0.37484  Biso   1.000  C
  H625     1.0000 0.91680  0.69970  0.37920  Biso   1.000  H
  O251     1.0000 0.97304  0.36617  0.90325  Biso   1.000  O
  O252     1.0000 0.97214  0.33059  0.86868  Biso   1.000  O
  C876     1.0000 0.96534  0.34506  0.89357  Biso   1.000  C
  C877     1.0000 0.94429  0.32661  0.90730  Biso   1.000  C
  C878     1.0000 0.93518  0.30193  0.89941  Biso   1.000  C
  H626     1.0000 0.94510  0.29200  0.88600  Biso   1.000  H
  C879     1.0000 0.85153  0.22253  0.87491  Biso   1.000  C
  H627     1.0000 0.84120  0.23850  0.87920  Biso   1.000  H
  C880     1.0000 0.84070  0.19887  0.86359  Biso   1.000  C
  H628     1.0000 0.82170  0.19760  0.85910  Biso   1.000  H
  C881     1.0000 0.88760  0.17310  0.86291  Biso   1.000  C
  H629     1.0000 0.89770  0.15690  0.85840  Biso   1.000  H
  C882     1.0000 0.89780  0.19810  0.87484  Biso   1.000  C
  H630     1.0000 0.91680  0.19970  0.87920  Biso   1.000  H
  O253     1.0000 0.47304  0.86617  0.90325  Biso   1.000  O
  O254     1.0000 0.47214  0.83059  0.86868  Biso   1.000  O
  C883     1.0000 0.46534  0.84506  0.89357  Biso   1.000  C
  C884     1.0000 0.44429  0.82661  0.90730  Biso   1.000  C
  C885     1.0000 0.43518  0.80193  0.89941  Biso   1.000  C
  H631     1.0000 0.44510  0.79200  0.88600  Biso   1.000  H
  C886     1.0000 0.35153  0.72253  0.87491  Biso   1.000  C
  H632     1.0000 0.34120  0.73850  0.87920  Biso   1.000  H
  C887     1.0000 0.34070  0.69887  0.86359  Biso   1.000  C
  H633     1.0000 0.32170  0.69760  0.85910  Biso   1.000  H
  C888     1.0000 0.38760  0.67310  0.86291  Biso   1.000  C
  H634     1.0000 0.39770  0.65690  0.85840  Biso   1.000  H
  C889     1.0000 0.39780  0.69810  0.87484  Biso   1.000  C
  H635     1.0000 0.41680  0.69970  0.87920  Biso   1.000  H
  O255     1.0000 0.47304  0.36617  0.40325  Biso   1.000  O
  O256     1.0000 0.47214  0.33059  0.36868  Biso   1.000  O
  C890     1.0000 0.46534  0.34506  0.39357  Biso   1.000  C
  C891     1.0000 0.44429  0.32661  0.40730  Biso   1.000  C
  C892     1.0000 0.43518  0.30193  0.39941  Biso   1.000  C
  H636     1.0000 0.44510  0.29200  0.38600  Biso   1.000  H
  C893     1.0000 0.35153  0.22253  0.37491  Biso   1.000  C
  H637     1.0000 0.34120  0.23850  0.37920  Biso   1.000  H
  C894     1.0000 0.34070  0.19887  0.36359  Biso   1.000  C
  H638     1.0000 0.32170  0.19760  0.35910  Biso   1.000  H
  C895     1.0000 0.38760  0.17310  0.36291  Biso   1.000  C
  H639     1.0000 0.39770  0.15690  0.35840  Biso   1.000  H
  C896     1.0000 0.39780  0.19810  0.37484  Biso   1.000  C
  H640     1.0000 0.41680  0.19970  0.37920  Biso   1.000  H
  O257     1.0000 0.59675  0.02696  0.86617  Biso   1.000  O
  O258     1.0000 0.63132  0.02786  0.83059  Biso   1.000  O
  C897     1.0000 0.60643  0.03466  0.84506  Biso   1.000  C
  C898     1.0000 0.59270  0.05571  0.82661  Biso   1.000  C
  C899     1.0000 0.60059  0.06482  0.80193  Biso   1.000  C
  H641     1.0000 0.61400  0.05490  0.79200  Biso   1.000  H
  C900     1.0000 0.62509  0.14847  0.72253  Biso   1.000  C
  H642     1.0000 0.62080  0.15880  0.73850  Biso   1.000  H
  C901     1.0000 0.63641  0.15930  0.69887  Biso   1.000  C
  H643     1.0000 0.64090  0.17830  0.69760  Biso   1.000  H
  C902     1.0000 0.63709  0.11240  0.67310  Biso   1.000  C
  H644     1.0000 0.64160  0.10230  0.65690  Biso   1.000  H
  C903     1.0000 0.62516  0.10220  0.69810  Biso   1.000  C
  H645     1.0000 0.62080  0.08320  0.69970  Biso   1.000  H
  O259     1.0000 0.59675  0.52696  0.36617  Biso   1.000  O
  O260     1.0000 0.63132  0.52786  0.33059  Biso   1.000  O
  C904     1.0000 0.60643  0.53466  0.34506  Biso   1.000  C
  C905     1.0000 0.59270  0.55571  0.32661  Biso   1.000  C
  C906     1.0000 0.60059  0.56482  0.30193  Biso   1.000  C
  H646     1.0000 0.61400  0.55490  0.29200  Biso   1.000  H
  C907     1.0000 0.62509  0.64847  0.22253  Biso   1.000  C
  H647     1.0000 0.62080  0.65880  0.23850  Biso   1.000  H
  C908     1.0000 0.63641  0.65930  0.19887  Biso   1.000  C
  H648     1.0000 0.64090  0.67830  0.19760  Biso   1.000  H
  C909     1.0000 0.63709  0.61240  0.17310  Biso   1.000  C
  H649     1.0000 0.64160  0.60230  0.15690  Biso   1.000  H
  C910     1.0000 0.62516  0.60220  0.19810  Biso   1.000  C
  H650     1.0000 0.62080  0.58320  0.19970  Biso   1.000  H
  O261     1.0000 0.09675  0.02696  0.36617  Biso   1.000  O
  O262     1.0000 0.13132  0.02786  0.33059  Biso   1.000  O
  C911     1.0000 0.10643  0.03466  0.34506  Biso   1.000  C
  C912     1.0000 0.09270  0.05571  0.32661  Biso   1.000  C
  C913     1.0000 0.10059  0.06482  0.30193  Biso   1.000  C
  H651     1.0000 0.11400  0.05490  0.29200  Biso   1.000  H
  C914     1.0000 0.12509  0.14847  0.22253  Biso   1.000  C
  H652     1.0000 0.12080  0.15880  0.23850  Biso   1.000  H
  C915     1.0000 0.13641  0.15930  0.19887  Biso   1.000  C
  H653     1.0000 0.14090  0.17830  0.19760  Biso   1.000  H
  C916     1.0000 0.13709  0.11240  0.17310  Biso   1.000  C
  H654     1.0000 0.14160  0.10230  0.15690  Biso   1.000  H
  C917     1.0000 0.12516  0.10220  0.19810  Biso   1.000  C
  H655     1.0000 0.12080  0.08320  0.19970  Biso   1.000  H
  O263     1.0000 0.09675  0.52696  0.86617  Biso   1.000  O
  O264     1.0000 0.13132  0.52786  0.83059  Biso   1.000  O
  C918     1.0000 0.10643  0.53466  0.84506  Biso   1.000  C
  C919     1.0000 0.09270  0.55571  0.82661  Biso   1.000  C
  C920     1.0000 0.10059  0.56482  0.80193  Biso   1.000  C
  H656     1.0000 0.11400  0.55490  0.79200  Biso   1.000  H
  C921     1.0000 0.12509  0.64847  0.72253  Biso   1.000  C
  H657     1.0000 0.12080  0.65880  0.73850  Biso   1.000  H
  C922     1.0000 0.13641  0.65930  0.69887  Biso   1.000  C
  H658     1.0000 0.14090  0.67830  0.69760  Biso   1.000  H
  C923     1.0000 0.13709  0.61240  0.67310  Biso   1.000  C
  H659     1.0000 0.14160  0.60230  0.65690  Biso   1.000  H
  C924     1.0000 0.12516  0.60220  0.69810  Biso   1.000  C
  H660     1.0000 0.12080  0.58320  0.69970  Biso   1.000  H
  O265     1.0000 0.40325  0.02696  0.13383  Biso   1.000  O
  O266     1.0000 0.36868  0.02786  0.16941  Biso   1.000  O
  C925     1.0000 0.39357  0.03466  0.15494  Biso   1.000  C
  C926     1.0000 0.40730  0.05571  0.17339  Biso   1.000  C
  C927     1.0000 0.39941  0.06482  0.19807  Biso   1.000  C
  H661     1.0000 0.38600  0.05490  0.20800  Biso   1.000  H
  C928     1.0000 0.37491  0.14847  0.27747  Biso   1.000  C
  H662     1.0000 0.37920  0.15880  0.26150  Biso   1.000  H
  C929     1.0000 0.36359  0.15930  0.30113  Biso   1.000  C
  H663     1.0000 0.35910  0.17830  0.30240  Biso   1.000  H
  C930     1.0000 0.36291  0.11240  0.32690  Biso   1.000  C
  H664     1.0000 0.35840  0.10230  0.34310  Biso   1.000  H
  C931     1.0000 0.37484  0.10220  0.30190  Biso   1.000  C
  H665     1.0000 0.37920  0.08320  0.30030  Biso   1.000  H
  O267     1.0000 0.40325  0.52696  0.63383  Biso   1.000  O
  O268     1.0000 0.36868  0.52786  0.66941  Biso   1.000  O
  C932     1.0000 0.39357  0.53466  0.65494  Biso   1.000  C
  C933     1.0000 0.40730  0.55571  0.67339  Biso   1.000  C
  C934     1.0000 0.39941  0.56482  0.69807  Biso   1.000  C
  H666     1.0000 0.38600  0.55490  0.70800  Biso   1.000  H
  C935     1.0000 0.37491  0.64847  0.77747  Biso   1.000  C
  H667     1.0000 0.37920  0.65880  0.76150  Biso   1.000  H
  C936     1.0000 0.36359  0.65930  0.80113  Biso   1.000  C
  H668     1.0000 0.35910  0.67830  0.80240  Biso   1.000  H
  C937     1.0000 0.36291  0.61240  0.82690  Biso   1.000  C
  H669     1.0000 0.35840  0.60230  0.84310  Biso   1.000  H
  C938     1.0000 0.37484  0.60220  0.80190  Biso   1.000  C
  H670     1.0000 0.37920  0.58320  0.80030  Biso   1.000  H
  O269     1.0000 0.90325  0.02696  0.63383  Biso   1.000  O
  O270     1.0000 0.86868  0.02786  0.66941  Biso   1.000  O
  C939     1.0000 0.89357  0.03466  0.65494  Biso   1.000  C
  C940     1.0000 0.90730  0.05571  0.67339  Biso   1.000  C
  C941     1.0000 0.89941  0.06482  0.69807  Biso   1.000  C
  H671     1.0000 0.88600  0.05490  0.70800  Biso   1.000  H
  C942     1.0000 0.87491  0.14847  0.77747  Biso   1.000  C
  H672     1.0000 0.87920  0.15880  0.76150  Biso   1.000  H
  C943     1.0000 0.86359  0.15930  0.80113  Biso   1.000  C
  H673     1.0000 0.85910  0.17830  0.80240  Biso   1.000  H
  C944     1.0000 0.86291  0.11240  0.82690  Biso   1.000  C
  H674     1.0000 0.85840  0.10230  0.84310  Biso   1.000  H
  C945     1.0000 0.87484  0.10220  0.80190  Biso   1.000  C
  H675     1.0000 0.87920  0.08320  0.80030  Biso   1.000  H
  O271     1.0000 0.90325  0.52696  0.13383  Biso   1.000  O
  O272     1.0000 0.86868  0.52786  0.16941  Biso   1.000  O
  C946     1.0000 0.89357  0.53466  0.15494  Biso   1.000  C
  C947     1.0000 0.90730  0.55571  0.17339  Biso   1.000  C
  C948     1.0000 0.89941  0.56482  0.19807  Biso   1.000  C
  H676     1.0000 0.88600  0.55490  0.20800  Biso   1.000  H
  C949     1.0000 0.87491  0.64847  0.27747  Biso   1.000  C
  H677     1.0000 0.87920  0.65880  0.26150  Biso   1.000  H
  C950     1.0000 0.86359  0.65930  0.30113  Biso   1.000  C
  H678     1.0000 0.85910  0.67830  0.30240  Biso   1.000  H
  C951     1.0000 0.86291  0.61240  0.32690  Biso   1.000  C
  H679     1.0000 0.85840  0.60230  0.34310  Biso   1.000  H
  C952     1.0000 0.87484  0.60220  0.30190  Biso   1.000  C
  H680     1.0000 0.87920  0.58320  0.30030  Biso   1.000  H
  O273     1.0000 0.59675  0.97304  0.13383  Biso   1.000  O
  O274     1.0000 0.63132  0.97214  0.16941  Biso   1.000  O
  C953     1.0000 0.60643  0.96534  0.15494  Biso   1.000  C
  C954     1.0000 0.59270  0.94429  0.17339  Biso   1.000  C
  C955     1.0000 0.60059  0.93518  0.19807  Biso   1.000  C
  H681     1.0000 0.61400  0.94510  0.20800  Biso   1.000  H
  C956     1.0000 0.62509  0.85153  0.27747  Biso   1.000  C
  H682     1.0000 0.62080  0.84120  0.26150  Biso   1.000  H
  C957     1.0000 0.63641  0.84070  0.30113  Biso   1.000  C
  H683     1.0000 0.64090  0.82170  0.30240  Biso   1.000  H
  C958     1.0000 0.63709  0.88760  0.32690  Biso   1.000  C
  H684     1.0000 0.64160  0.89770  0.34310  Biso   1.000  H
  C959     1.0000 0.62516  0.89780  0.30190  Biso   1.000  C
  H685     1.0000 0.62080  0.91680  0.30030  Biso   1.000  H
  O275     1.0000 0.59675  0.47304  0.63383  Biso   1.000  O
  O276     1.0000 0.63132  0.47214  0.66941  Biso   1.000  O
  C960     1.0000 0.60643  0.46534  0.65494  Biso   1.000  C
  C961     1.0000 0.59270  0.44429  0.67339  Biso   1.000  C
  C962     1.0000 0.60059  0.43518  0.69807  Biso   1.000  C
  H686     1.0000 0.61400  0.44510  0.70800  Biso   1.000  H
  C963     1.0000 0.62509  0.35153  0.77747  Biso   1.000  C
  H687     1.0000 0.62080  0.34120  0.76150  Biso   1.000  H
  C964     1.0000 0.63641  0.34070  0.80113  Biso   1.000  C
  H688     1.0000 0.64090  0.32170  0.80240  Biso   1.000  H
  C965     1.0000 0.63709  0.38760  0.82690  Biso   1.000  C
  H689     1.0000 0.64160  0.39770  0.84310  Biso   1.000  H
  C966     1.0000 0.62516  0.39780  0.80190  Biso   1.000  C
  H690     1.0000 0.62080  0.41680  0.80030  Biso   1.000  H
  O277     1.0000 0.09675  0.97304  0.63383  Biso   1.000  O
  O278     1.0000 0.13132  0.97214  0.66941  Biso   1.000  O
  C967     1.0000 0.10643  0.96534  0.65494  Biso   1.000  C
  C968     1.0000 0.09270  0.94429  0.67339  Biso   1.000  C
  C969     1.0000 0.10059  0.93518  0.69807  Biso   1.000  C
  H691     1.0000 0.11400  0.94510  0.70800  Biso   1.000  H
  C970     1.0000 0.12509  0.85153  0.77747  Biso   1.000  C
  H692     1.0000 0.12080  0.84120  0.76150  Biso   1.000  H
  C971     1.0000 0.13641  0.84070  0.80113  Biso   1.000  C
  H693     1.0000 0.14090  0.82170  0.80240  Biso   1.000  H
  C972     1.0000 0.13709  0.88760  0.82690  Biso   1.000  C
  H694     1.0000 0.14160  0.89770  0.84310  Biso   1.000  H
  C973     1.0000 0.12516  0.89780  0.80190  Biso   1.000  C
  H695     1.0000 0.12080  0.91680  0.80030  Biso   1.000  H
  O279     1.0000 0.09675  0.47304  0.13383  Biso   1.000  O
  O280     1.0000 0.13132  0.47214  0.16941  Biso   1.000  O
  C974     1.0000 0.10643  0.46534  0.15494  Biso   1.000  C
  C975     1.0000 0.09270  0.44429  0.17339  Biso   1.000  C
  C976     1.0000 0.10059  0.43518  0.19807  Biso   1.000  C
  H696     1.0000 0.11400  0.44510  0.20800  Biso   1.000  H
  C977     1.0000 0.12509  0.35153  0.27747  Biso   1.000  C
  H697     1.0000 0.12080  0.34120  0.26150  Biso   1.000  H
  C978     1.0000 0.13641  0.34070  0.30113  Biso   1.000  C
  H698     1.0000 0.14090  0.32170  0.30240  Biso   1.000  H
  C979     1.0000 0.13709  0.38760  0.32690  Biso   1.000  C
  H699     1.0000 0.14160  0.39770  0.34310  Biso   1.000  H
  C980     1.0000 0.12516  0.39780  0.30190  Biso   1.000  C
  H700     1.0000 0.12080  0.41680  0.30030  Biso   1.000  H
  O281     1.0000 0.40325  0.97304  0.86617  Biso   1.000  O
  O282     1.0000 0.36868  0.97214  0.83059  Biso   1.000  O
  C981     1.0000 0.39357  0.96534  0.84506  Biso   1.000  C
  C982     1.0000 0.40730  0.94429  0.82661  Biso   1.000  C
  C983     1.0000 0.39941  0.93518  0.80193  Biso   1.000  C
  H701     1.0000 0.38600  0.94510  0.79200  Biso   1.000  H
  C984     1.0000 0.37491  0.85153  0.72253  Biso   1.000  C
  H702     1.0000 0.37920  0.84120  0.73850  Biso   1.000  H
  C985     1.0000 0.36359  0.84070  0.69887  Biso   1.000  C
  H703     1.0000 0.35910  0.82170  0.69760  Biso   1.000  H
  C986     1.0000 0.36291  0.88760  0.67310  Biso   1.000  C
  H704     1.0000 0.35840  0.89770  0.65690  Biso   1.000  H
  C987     1.0000 0.37484  0.89780  0.69810  Biso   1.000  C
  H705     1.0000 0.37920  0.91680  0.69970  Biso   1.000  H
  O283     1.0000 0.40325  0.47304  0.36617  Biso   1.000  O
  O284     1.0000 0.36868  0.47214  0.33059  Biso   1.000  O
  C988     1.0000 0.39357  0.46534  0.34506  Biso   1.000  C
  C989     1.0000 0.40730  0.44429  0.32661  Biso   1.000  C
  C990     1.0000 0.39941  0.43518  0.30193  Biso   1.000  C
  H706     1.0000 0.38600  0.44510  0.29200  Biso   1.000  H
  C991     1.0000 0.37491  0.35153  0.22253  Biso   1.000  C
  H707     1.0000 0.37920  0.34120  0.23850  Biso   1.000  H
  C992     1.0000 0.36359  0.34070  0.19887  Biso   1.000  C
  H708     1.0000 0.35910  0.32170  0.19760  Biso   1.000  H
  C993     1.0000 0.36291  0.38760  0.17310  Biso   1.000  C
  H709     1.0000 0.35840  0.39770  0.15690  Biso   1.000  H
  C994     1.0000 0.37484  0.39780  0.19810  Biso   1.000  C
  H710     1.0000 0.37920  0.41680  0.19970  Biso   1.000  H
  O285     1.0000 0.90325  0.97304  0.36617  Biso   1.000  O
  O286     1.0000 0.86868  0.97214  0.33059  Biso   1.000  O
  C995     1.0000 0.89357  0.96534  0.34506  Biso   1.000  C
  C996     1.0000 0.90730  0.94429  0.32661  Biso   1.000  C
  C997     1.0000 0.89941  0.93518  0.30193  Biso   1.000  C
  H711     1.0000 0.88600  0.94510  0.29200  Biso   1.000  H
  C998     1.0000 0.87491  0.85153  0.22253  Biso   1.000  C
  H712     1.0000 0.87920  0.84120  0.23850  Biso   1.000  H
  C999     1.0000 0.86359  0.84070  0.19887  Biso   1.000  C
  H713     1.0000 0.85910  0.82170  0.19760  Biso   1.000  H
  C1000    1.0000 0.86291  0.88760  0.17310  Biso   1.000  C
  H714     1.0000 0.85840  0.89770  0.15690  Biso   1.000  H
  C1001    1.0000 0.87484  0.89780  0.19810  Biso   1.000  C
  H715     1.0000 0.87920  0.91680  0.19970  Biso   1.000  H
  O287     1.0000 0.90325  0.47304  0.86617  Biso   1.000  O
  O288     1.0000 0.86868  0.47214  0.83059  Biso   1.000  O
  C1002    1.0000 0.89357  0.46534  0.84506  Biso   1.000  C
  C1003    1.0000 0.90730  0.44429  0.82661  Biso   1.000  C
  C1004    1.0000 0.89941  0.43518  0.80193  Biso   1.000  C
  H716     1.0000 0.88600  0.44510  0.79200  Biso   1.000  H
  C1005    1.0000 0.87491  0.35153  0.72253  Biso   1.000  C
  H717     1.0000 0.87920  0.34120  0.73850  Biso   1.000  H
  C1006    1.0000 0.86359  0.34070  0.69887  Biso   1.000  C
  H718     1.0000 0.85910  0.32170  0.69760  Biso   1.000  H
  C1007    1.0000 0.86291  0.38760  0.67310  Biso   1.000  C
  H719     1.0000 0.85840  0.39770  0.65690  Biso   1.000  H
  C1008    1.0000 0.87484  0.39780  0.69810  Biso   1.000  C
  H720     1.0000 0.87920  0.41680  0.69970  Biso   1.000  H
  O289     1.0000 0.59675  0.86617  0.97304  Biso   1.000  O
  O290     1.0000 0.63132  0.83059  0.97214  Biso   1.000  O
  C1009    1.0000 0.60643  0.84506  0.96534  Biso   1.000  C
  C1010    1.0000 0.59270  0.82661  0.94429  Biso   1.000  C
  C1011    1.0000 0.60059  0.80193  0.93518  Biso   1.000  C
  H721     1.0000 0.61400  0.79200  0.94510  Biso   1.000  H
  C1012    1.0000 0.62509  0.72253  0.85153  Biso   1.000  C
  H722     1.0000 0.62080  0.73850  0.84120  Biso   1.000  H
  C1013    1.0000 0.63641  0.69887  0.84070  Biso   1.000  C
  H723     1.0000 0.64090  0.69760  0.82170  Biso   1.000  H
  C1014    1.0000 0.63709  0.67310  0.88760  Biso   1.000  C
  H724     1.0000 0.64160  0.65690  0.89770  Biso   1.000  H
  C1015    1.0000 0.62516  0.69810  0.89780  Biso   1.000  C
  H725     1.0000 0.62080  0.69970  0.91680  Biso   1.000  H
  O291     1.0000 0.59675  0.36617  0.47304  Biso   1.000  O
  O292     1.0000 0.63132  0.33059  0.47214  Biso   1.000  O
  C1016    1.0000 0.60643  0.34506  0.46534  Biso   1.000  C
  C1017    1.0000 0.59270  0.32661  0.44429  Biso   1.000  C
  C1018    1.0000 0.60059  0.30193  0.43518  Biso   1.000  C
  H726     1.0000 0.61400  0.29200  0.44510  Biso   1.000  H
  C1019    1.0000 0.62509  0.22253  0.35153  Biso   1.000  C
  H727     1.0000 0.62080  0.23850  0.34120  Biso   1.000  H
  C1020    1.0000 0.63641  0.19887  0.34070  Biso   1.000  C
  H728     1.0000 0.64090  0.19760  0.32170  Biso   1.000  H
  C1021    1.0000 0.63709  0.17310  0.38760  Biso   1.000  C
  H729     1.0000 0.64160  0.15690  0.39770  Biso   1.000  H
  C1022    1.0000 0.62516  0.19810  0.39780  Biso   1.000  C
  H730     1.0000 0.62080  0.19970  0.41680  Biso   1.000  H
  O293     1.0000 0.09675  0.86617  0.47304  Biso   1.000  O
  O294     1.0000 0.13132  0.83059  0.47214  Biso   1.000  O
  C1023    1.0000 0.10643  0.84506  0.46534  Biso   1.000  C
  C1024    1.0000 0.09270  0.82661  0.44429  Biso   1.000  C
  C1025    1.0000 0.10059  0.80193  0.43518  Biso   1.000  C
  H731     1.0000 0.11400  0.79200  0.44510  Biso   1.000  H
  C1026    1.0000 0.12509  0.72253  0.35153  Biso   1.000  C
  H732     1.0000 0.12080  0.73850  0.34120  Biso   1.000  H
  C1027    1.0000 0.13641  0.69887  0.34070  Biso   1.000  C
  H733     1.0000 0.14090  0.69760  0.32170  Biso   1.000  H
  C1028    1.0000 0.13709  0.67310  0.38760  Biso   1.000  C
  H734     1.0000 0.14160  0.65690  0.39770  Biso   1.000  H
  C1029    1.0000 0.12516  0.69810  0.39780  Biso   1.000  C
  H735     1.0000 0.12080  0.69970  0.41680  Biso   1.000  H
  O295     1.0000 0.09675  0.36617  0.97304  Biso   1.000  O
  O296     1.0000 0.13132  0.33059  0.97214  Biso   1.000  O
  C1030    1.0000 0.10643  0.34506  0.96534  Biso   1.000  C
  C1031    1.0000 0.09270  0.32661  0.94429  Biso   1.000  C
  C1032    1.0000 0.10059  0.30193  0.93518  Biso   1.000  C
  H736     1.0000 0.11400  0.29200  0.94510  Biso   1.000  H
  C1033    1.0000 0.12509  0.22253  0.85153  Biso   1.000  C
  H737     1.0000 0.12080  0.23850  0.84120  Biso   1.000  H
  C1034    1.0000 0.13641  0.19887  0.84070  Biso   1.000  C
  H738     1.0000 0.14090  0.19760  0.82170  Biso   1.000  H
  C1035    1.0000 0.13709  0.17310  0.88760  Biso   1.000  C
  H739     1.0000 0.14160  0.15690  0.89770  Biso   1.000  H
  C1036    1.0000 0.12516  0.19810  0.89780  Biso   1.000  C
  H740     1.0000 0.12080  0.19970  0.91680  Biso   1.000  H
  O297     1.0000 0.40325  0.13383  0.97304  Biso   1.000  O
  O298     1.0000 0.36868  0.16941  0.97214  Biso   1.000  O
  C1037    1.0000 0.39357  0.15494  0.96534  Biso   1.000  C
  C1038    1.0000 0.40730  0.17339  0.94429  Biso   1.000  C
  C1039    1.0000 0.39941  0.19807  0.93518  Biso   1.000  C
  H741     1.0000 0.38600  0.20800  0.94510  Biso   1.000  H
  C1040    1.0000 0.37491  0.27747  0.85153  Biso   1.000  C
  H742     1.0000 0.37920  0.26150  0.84120  Biso   1.000  H
  C1041    1.0000 0.36359  0.30113  0.84070  Biso   1.000  C
  H743     1.0000 0.35910  0.30240  0.82170  Biso   1.000  H
  C1042    1.0000 0.36291  0.32690  0.88760  Biso   1.000  C
  H744     1.0000 0.35840  0.34310  0.89770  Biso   1.000  H
  C1043    1.0000 0.37484  0.30190  0.89780  Biso   1.000  C
  H745     1.0000 0.37920  0.30030  0.91680  Biso   1.000  H
  O299     1.0000 0.40325  0.63383  0.47304  Biso   1.000  O
  O300     1.0000 0.36868  0.66941  0.47214  Biso   1.000  O
  C1044    1.0000 0.39357  0.65494  0.46534  Biso   1.000  C
  C1045    1.0000 0.40730  0.67339  0.44429  Biso   1.000  C
  C1046    1.0000 0.39941  0.69807  0.43518  Biso   1.000  C
  H746     1.0000 0.38600  0.70800  0.44510  Biso   1.000  H
  C1047    1.0000 0.37491  0.77747  0.35153  Biso   1.000  C
  H747     1.0000 0.37920  0.76150  0.34120  Biso   1.000  H
  C1048    1.0000 0.36359  0.80113  0.34070  Biso   1.000  C
  H748     1.0000 0.35910  0.80240  0.32170  Biso   1.000  H
  C1049    1.0000 0.36291  0.82690  0.38760  Biso   1.000  C
  H749     1.0000 0.35840  0.84310  0.39770  Biso   1.000  H
  C1050    1.0000 0.37484  0.80190  0.39780  Biso   1.000  C
  H750     1.0000 0.37920  0.80030  0.41680  Biso   1.000  H
  O301     1.0000 0.90325  0.13383  0.47304  Biso   1.000  O
  O302     1.0000 0.86868  0.16941  0.47214  Biso   1.000  O
  C1051    1.0000 0.89357  0.15494  0.46534  Biso   1.000  C
  C1052    1.0000 0.90730  0.17339  0.44429  Biso   1.000  C
  C1053    1.0000 0.89941  0.19807  0.43518  Biso   1.000  C
  H751     1.0000 0.88600  0.20800  0.44510  Biso   1.000  H
  C1054    1.0000 0.87491  0.27747  0.35153  Biso   1.000  C
  H752     1.0000 0.87920  0.26150  0.34120  Biso   1.000  H
  C1055    1.0000 0.86359  0.30113  0.34070  Biso   1.000  C
  H753     1.0000 0.85910  0.30240  0.32170  Biso   1.000  H
  C1056    1.0000 0.86291  0.32690  0.38760  Biso   1.000  C
  H754     1.0000 0.85840  0.34310  0.39770  Biso   1.000  H
  C1057    1.0000 0.87484  0.30190  0.39780  Biso   1.000  C
  H755     1.0000 0.87920  0.30030  0.41680  Biso   1.000  H
  O303     1.0000 0.90325  0.63383  0.97304  Biso   1.000  O
  O304     1.0000 0.86868  0.66941  0.97214  Biso   1.000  O
  C1058    1.0000 0.89357  0.65494  0.96534  Biso   1.000  C
  C1059    1.0000 0.90730  0.67339  0.94429  Biso   1.000  C
  C1060    1.0000 0.89941  0.69807  0.93518  Biso   1.000  C
  H756     1.0000 0.88600  0.70800  0.94510  Biso   1.000  H
  C1061    1.0000 0.87491  0.77747  0.85153  Biso   1.000  C
  H757     1.0000 0.87920  0.76150  0.84120  Biso   1.000  H
  C1062    1.0000 0.86359  0.80113  0.84070  Biso   1.000  C
  H758     1.0000 0.85910  0.80240  0.82170  Biso   1.000  H
  C1063    1.0000 0.86291  0.82690  0.88760  Biso   1.000  C
  H759     1.0000 0.85840  0.84310  0.89770  Biso   1.000  H
  C1064    1.0000 0.87484  0.80190  0.89780  Biso   1.000  C
  H760     1.0000 0.87920  0.80030  0.91680  Biso   1.000  H
  O305     1.0000 0.59675  0.13383  0.02696  Biso   1.000  O
  O306     1.0000 0.63132  0.16941  0.02786  Biso   1.000  O
  C1065    1.0000 0.60643  0.15494  0.03466  Biso   1.000  C
  C1066    1.0000 0.59270  0.17339  0.05571  Biso   1.000  C
  C1067    1.0000 0.60059  0.19807  0.06482  Biso   1.000  C
  H761     1.0000 0.61400  0.20800  0.05490  Biso   1.000  H
  C1068    1.0000 0.62509  0.27747  0.14847  Biso   1.000  C
  H762     1.0000 0.62080  0.26150  0.15880  Biso   1.000  H
  C1069    1.0000 0.63641  0.30113  0.15930  Biso   1.000  C
  H763     1.0000 0.64090  0.30240  0.17830  Biso   1.000  H
  C1070    1.0000 0.63709  0.32690  0.11240  Biso   1.000  C
  H764     1.0000 0.64160  0.34310  0.10230  Biso   1.000  H
  C1071    1.0000 0.62516  0.30190  0.10220  Biso   1.000  C
  H765     1.0000 0.62080  0.30030  0.08320  Biso   1.000  H
  O307     1.0000 0.59675  0.63383  0.52696  Biso   1.000  O
  O308     1.0000 0.63132  0.66941  0.52786  Biso   1.000  O
  C1072    1.0000 0.60643  0.65494  0.53466  Biso   1.000  C
  C1073    1.0000 0.59270  0.67339  0.55571  Biso   1.000  C
  C1074    1.0000 0.60059  0.69807  0.56482  Biso   1.000  C
  H766     1.0000 0.61400  0.70800  0.55490  Biso   1.000  H
  C1075    1.0000 0.62509  0.77747  0.64847  Biso   1.000  C
  H767     1.0000 0.62080  0.76150  0.65880  Biso   1.000  H
  C1076    1.0000 0.63641  0.80113  0.65930  Biso   1.000  C
  H768     1.0000 0.64090  0.80240  0.67830  Biso   1.000  H
  C1077    1.0000 0.63709  0.82690  0.61240  Biso   1.000  C
  H769     1.0000 0.64160  0.84310  0.60230  Biso   1.000  H
  C1078    1.0000 0.62516  0.80190  0.60220  Biso   1.000  C
  H770     1.0000 0.62080  0.80030  0.58320  Biso   1.000  H
  O309     1.0000 0.09675  0.13383  0.52696  Biso   1.000  O
  O310     1.0000 0.13132  0.16941  0.52786  Biso   1.000  O
  C1079    1.0000 0.10643  0.15494  0.53466  Biso   1.000  C
  C1080    1.0000 0.09270  0.17339  0.55571  Biso   1.000  C
  C1081    1.0000 0.10059  0.19807  0.56482  Biso   1.000  C
  H771     1.0000 0.11400  0.20800  0.55490  Biso   1.000  H
  C1082    1.0000 0.12509  0.27747  0.64847  Biso   1.000  C
  H772     1.0000 0.12080  0.26150  0.65880  Biso   1.000  H
  C1083    1.0000 0.13641  0.30113  0.65930  Biso   1.000  C
  H773     1.0000 0.14090  0.30240  0.67830  Biso   1.000  H
  C1084    1.0000 0.13709  0.32690  0.61240  Biso   1.000  C
  H774     1.0000 0.14160  0.34310  0.60230  Biso   1.000  H
  C1085    1.0000 0.12516  0.30190  0.60220  Biso   1.000  C
  H775     1.0000 0.12080  0.30030  0.58320  Biso   1.000  H
  O311     1.0000 0.09675  0.63383  0.02696  Biso   1.000  O
  O312     1.0000 0.13132  0.66941  0.02786  Biso   1.000  O
  C1086    1.0000 0.10643  0.65494  0.03466  Biso   1.000  C
  C1087    1.0000 0.09270  0.67339  0.05571  Biso   1.000  C
  C1088    1.0000 0.10059  0.69807  0.06482  Biso   1.000  C
  H776     1.0000 0.11400  0.70800  0.05490  Biso   1.000  H
  C1089    1.0000 0.12509  0.77747  0.14847  Biso   1.000  C
  H777     1.0000 0.12080  0.76150  0.15880  Biso   1.000  H
  C1090    1.0000 0.13641  0.80113  0.15930  Biso   1.000  C
  H778     1.0000 0.14090  0.80240  0.17830  Biso   1.000  H
  C1091    1.0000 0.13709  0.82690  0.11240  Biso   1.000  C
  H779     1.0000 0.14160  0.84310  0.10230  Biso   1.000  H
  C1092    1.0000 0.12516  0.80190  0.10220  Biso   1.000  C
  H780     1.0000 0.12080  0.80030  0.08320  Biso   1.000  H
  O313     1.0000 0.40325  0.86617  0.02696  Biso   1.000  O
  O314     1.0000 0.36868  0.83059  0.02786  Biso   1.000  O
  C1093    1.0000 0.39357  0.84506  0.03466  Biso   1.000  C
  C1094    1.0000 0.40730  0.82661  0.05571  Biso   1.000  C
  C1095    1.0000 0.39941  0.80193  0.06482  Biso   1.000  C
  H781     1.0000 0.38600  0.79200  0.05490  Biso   1.000  H
  C1096    1.0000 0.37491  0.72253  0.14847  Biso   1.000  C
  H782     1.0000 0.37920  0.73850  0.15880  Biso   1.000  H
  C1097    1.0000 0.36359  0.69887  0.15930  Biso   1.000  C
  H783     1.0000 0.35910  0.69760  0.17830  Biso   1.000  H
  C1098    1.0000 0.36291  0.67310  0.11240  Biso   1.000  C
  H784     1.0000 0.35840  0.65690  0.10230  Biso   1.000  H
  C1099    1.0000 0.37484  0.69810  0.10220  Biso   1.000  C
  H785     1.0000 0.37920  0.69970  0.08320  Biso   1.000  H
  O315     1.0000 0.40325  0.36617  0.52696  Biso   1.000  O
  O316     1.0000 0.36868  0.33059  0.52786  Biso   1.000  O
  C1100    1.0000 0.39357  0.34506  0.53466  Biso   1.000  C
  C1101    1.0000 0.40730  0.32661  0.55571  Biso   1.000  C
  C1102    1.0000 0.39941  0.30193  0.56482  Biso   1.000  C
  H786     1.0000 0.38600  0.29200  0.55490  Biso   1.000  H
  C1103    1.0000 0.37491  0.22253  0.64847  Biso   1.000  C
  H787     1.0000 0.37920  0.23850  0.65880  Biso   1.000  H
  C1104    1.0000 0.36359  0.19887  0.65930  Biso   1.000  C
  H788     1.0000 0.35910  0.19760  0.67830  Biso   1.000  H
  C1105    1.0000 0.36291  0.17310  0.61240  Biso   1.000  C
  H789     1.0000 0.35840  0.15690  0.60230  Biso   1.000  H
  C1106    1.0000 0.37484  0.19810  0.60220  Biso   1.000  C
  H790     1.0000 0.37920  0.19970  0.58320  Biso   1.000  H
  O317     1.0000 0.90325  0.86617  0.52696  Biso   1.000  O
  O318     1.0000 0.86868  0.83059  0.52786  Biso   1.000  O
  C1107    1.0000 0.89357  0.84506  0.53466  Biso   1.000  C
  C1108    1.0000 0.90730  0.82661  0.55571  Biso   1.000  C
  C1109    1.0000 0.89941  0.80193  0.56482  Biso   1.000  C
  H791     1.0000 0.88600  0.79200  0.55490  Biso   1.000  H
  C1110    1.0000 0.87491  0.72253  0.64847  Biso   1.000  C
  H792     1.0000 0.87920  0.73850  0.65880  Biso   1.000  H
  C1111    1.0000 0.86359  0.69887  0.65930  Biso   1.000  C
  H793     1.0000 0.85910  0.69760  0.67830  Biso   1.000  H
  C1112    1.0000 0.86291  0.67310  0.61240  Biso   1.000  C
  H794     1.0000 0.85840  0.65690  0.60230  Biso   1.000  H
  C1113    1.0000 0.87484  0.69810  0.60220  Biso   1.000  C
  H795     1.0000 0.87920  0.69970  0.58320  Biso   1.000  H
  O319     1.0000 0.90325  0.36617  0.02696  Biso   1.000  O
  O320     1.0000 0.86868  0.33059  0.02786  Biso   1.000  O
  C1114    1.0000 0.89357  0.34506  0.03466  Biso   1.000  C
  C1115    1.0000 0.90730  0.32661  0.05571  Biso   1.000  C
  C1116    1.0000 0.89941  0.30193  0.06482  Biso   1.000  C
  H796     1.0000 0.88600  0.29200  0.05490  Biso   1.000  H
  C1117    1.0000 0.87491  0.22253  0.14847  Biso   1.000  C
  H797     1.0000 0.87920  0.23850  0.15880  Biso   1.000  H
  C1118    1.0000 0.86359  0.19887  0.15930  Biso   1.000  C
  H798     1.0000 0.85910  0.19760  0.17830  Biso   1.000  H
  C1119    1.0000 0.86291  0.17310  0.11240  Biso   1.000  C
  H799     1.0000 0.85840  0.15690  0.10230  Biso   1.000  H
  C1120    1.0000 0.87484  0.19810  0.10220  Biso   1.000  C
  H800     1.0000 0.87920  0.19970  0.08320  Biso   1.000  H
  O321     1.0000 0.86617  0.02696  0.40325  Biso   1.000  O
  O322     1.0000 0.83059  0.02786  0.36868  Biso   1.000  O
  C1121    1.0000 0.84506  0.03466  0.39357  Biso   1.000  C
  C1122    1.0000 0.82661  0.05571  0.40730  Biso   1.000  C
  C1123    1.0000 0.80193  0.06482  0.39941  Biso   1.000  C
  H801     1.0000 0.79200  0.05490  0.38600  Biso   1.000  H
  C1124    1.0000 0.72253  0.14847  0.37491  Biso   1.000  C
  H802     1.0000 0.73850  0.15880  0.37920  Biso   1.000  H
  C1125    1.0000 0.69887  0.15930  0.36359  Biso   1.000  C
  H803     1.0000 0.69760  0.17830  0.35910  Biso   1.000  H
  C1126    1.0000 0.67310  0.11240  0.36291  Biso   1.000  C
  H804     1.0000 0.65690  0.10230  0.35840  Biso   1.000  H
  C1127    1.0000 0.69810  0.10220  0.37484  Biso   1.000  C
  H805     1.0000 0.69970  0.08320  0.37920  Biso   1.000  H
  O323     1.0000 0.86617  0.52696  0.90325  Biso   1.000  O
  O324     1.0000 0.83059  0.52786  0.86868  Biso   1.000  O
  C1128    1.0000 0.84506  0.53466  0.89357  Biso   1.000  C
  C1129    1.0000 0.82661  0.55571  0.90730  Biso   1.000  C
  C1130    1.0000 0.80193  0.56482  0.89941  Biso   1.000  C
  H806     1.0000 0.79200  0.55490  0.88600  Biso   1.000  H
  C1131    1.0000 0.72253  0.64847  0.87491  Biso   1.000  C
  H807     1.0000 0.73850  0.65880  0.87920  Biso   1.000  H
  C1132    1.0000 0.69887  0.65930  0.86359  Biso   1.000  C
  H808     1.0000 0.69760  0.67830  0.85910  Biso   1.000  H
  C1133    1.0000 0.67310  0.61240  0.86291  Biso   1.000  C
  H809     1.0000 0.65690  0.60230  0.85840  Biso   1.000  H
  C1134    1.0000 0.69810  0.60220  0.87484  Biso   1.000  C
  H810     1.0000 0.69970  0.58320  0.87920  Biso   1.000  H
  O325     1.0000 0.36617  0.02696  0.90325  Biso   1.000  O
  O326     1.0000 0.33059  0.02786  0.86868  Biso   1.000  O
  C1135    1.0000 0.34506  0.03466  0.89357  Biso   1.000  C
  C1136    1.0000 0.32661  0.05571  0.90730  Biso   1.000  C
  C1137    1.0000 0.30193  0.06482  0.89941  Biso   1.000  C
  H811     1.0000 0.29200  0.05490  0.88600  Biso   1.000  H
  C1138    1.0000 0.22253  0.14847  0.87491  Biso   1.000  C
  H812     1.0000 0.23850  0.15880  0.87920  Biso   1.000  H
  C1139    1.0000 0.19887  0.15930  0.86359  Biso   1.000  C
  H813     1.0000 0.19760  0.17830  0.85910  Biso   1.000  H
  C1140    1.0000 0.17310  0.11240  0.86291  Biso   1.000  C
  H814     1.0000 0.15690  0.10230  0.85840  Biso   1.000  H
  C1141    1.0000 0.19810  0.10220  0.87484  Biso   1.000  C
  H815     1.0000 0.19970  0.08320  0.87920  Biso   1.000  H
  O327     1.0000 0.36617  0.52696  0.40325  Biso   1.000  O
  O328     1.0000 0.33059  0.52786  0.36868  Biso   1.000  O
  C1142    1.0000 0.34506  0.53466  0.39357  Biso   1.000  C
  C1143    1.0000 0.32661  0.55571  0.40730  Biso   1.000  C
  C1144    1.0000 0.30193  0.56482  0.39941  Biso   1.000  C
  H816     1.0000 0.29200  0.55490  0.38600  Biso   1.000  H
  C1145    1.0000 0.22253  0.64847  0.37491  Biso   1.000  C
  H817     1.0000 0.23850  0.65880  0.37920  Biso   1.000  H
  C1146    1.0000 0.19887  0.65930  0.36359  Biso   1.000  C
  H818     1.0000 0.19760  0.67830  0.35910  Biso   1.000  H
  C1147    1.0000 0.17310  0.61240  0.36291  Biso   1.000  C
  H819     1.0000 0.15690  0.60230  0.35840  Biso   1.000  H
  C1148    1.0000 0.19810  0.60220  0.37484  Biso   1.000  C
  H820     1.0000 0.19970  0.58320  0.37920  Biso   1.000  H
  O329     1.0000 0.13383  0.02696  0.59675  Biso   1.000  O
  O330     1.0000 0.16941  0.02786  0.63132  Biso   1.000  O
  C1149    1.0000 0.15494  0.03466  0.60643  Biso   1.000  C
  C1150    1.0000 0.17339  0.05571  0.59270  Biso   1.000  C
  C1151    1.0000 0.19807  0.06482  0.60059  Biso   1.000  C
  H821     1.0000 0.20800  0.05490  0.61400  Biso   1.000  H
  C1152    1.0000 0.27747  0.14847  0.62509  Biso   1.000  C
  H822     1.0000 0.26150  0.15880  0.62080  Biso   1.000  H
  C1153    1.0000 0.30113  0.15930  0.63641  Biso   1.000  C
  H823     1.0000 0.30240  0.17830  0.64090  Biso   1.000  H
  C1154    1.0000 0.32690  0.11240  0.63709  Biso   1.000  C
  H824     1.0000 0.34310  0.10230  0.64160  Biso   1.000  H
  C1155    1.0000 0.30190  0.10220  0.62516  Biso   1.000  C
  H825     1.0000 0.30030  0.08320  0.62080  Biso   1.000  H
  O331     1.0000 0.13383  0.52696  0.09675  Biso   1.000  O
  O332     1.0000 0.16941  0.52786  0.13132  Biso   1.000  O
  C1156    1.0000 0.15494  0.53466  0.10643  Biso   1.000  C
  C1157    1.0000 0.17339  0.55571  0.09270  Biso   1.000  C
  C1158    1.0000 0.19807  0.56482  0.10059  Biso   1.000  C
  H826     1.0000 0.20800  0.55490  0.11400  Biso   1.000  H
  C1159    1.0000 0.27747  0.64847  0.12509  Biso   1.000  C
  H827     1.0000 0.26150  0.65880  0.12080  Biso   1.000  H
  C1160    1.0000 0.30113  0.65930  0.13641  Biso   1.000  C
  H828     1.0000 0.30240  0.67830  0.14090  Biso   1.000  H
  C1161    1.0000 0.32690  0.61240  0.13709  Biso   1.000  C
  H829     1.0000 0.34310  0.60230  0.14160  Biso   1.000  H
  C1162    1.0000 0.30190  0.60220  0.12516  Biso   1.000  C
  H830     1.0000 0.30030  0.58320  0.12080  Biso   1.000  H
  O333     1.0000 0.63383  0.02696  0.09675  Biso   1.000  O
  O334     1.0000 0.66941  0.02786  0.13132  Biso   1.000  O
  C1163    1.0000 0.65494  0.03466  0.10643  Biso   1.000  C
  C1164    1.0000 0.67339  0.05571  0.09270  Biso   1.000  C
  C1165    1.0000 0.69807  0.06482  0.10059  Biso   1.000  C
  H831     1.0000 0.70800  0.05490  0.11400  Biso   1.000  H
  C1166    1.0000 0.77747  0.14847  0.12509  Biso   1.000  C
  H832     1.0000 0.76150  0.15880  0.12080  Biso   1.000  H
  C1167    1.0000 0.80113  0.15930  0.13641  Biso   1.000  C
  H833     1.0000 0.80240  0.17830  0.14090  Biso   1.000  H
  C1168    1.0000 0.82690  0.11240  0.13709  Biso   1.000  C
  H834     1.0000 0.84310  0.10230  0.14160  Biso   1.000  H
  C1169    1.0000 0.80190  0.10220  0.12516  Biso   1.000  C
  H835     1.0000 0.80030  0.08320  0.12080  Biso   1.000  H
  O335     1.0000 0.63383  0.52696  0.59675  Biso   1.000  O
  O336     1.0000 0.66941  0.52786  0.63132  Biso   1.000  O
  C1170    1.0000 0.65494  0.53466  0.60643  Biso   1.000  C
  C1171    1.0000 0.67339  0.55571  0.59270  Biso   1.000  C
  C1172    1.0000 0.69807  0.56482  0.60059  Biso   1.000  C
  H836     1.0000 0.70800  0.55490  0.61400  Biso   1.000  H
  C1173    1.0000 0.77747  0.64847  0.62509  Biso   1.000  C
  H837     1.0000 0.76150  0.65880  0.62080  Biso   1.000  H
  C1174    1.0000 0.80113  0.65930  0.63641  Biso   1.000  C
  H838     1.0000 0.80240  0.67830  0.64090  Biso   1.000  H
  C1175    1.0000 0.82690  0.61240  0.63709  Biso   1.000  C
  H839     1.0000 0.84310  0.60230  0.64160  Biso   1.000  H
  C1176    1.0000 0.80190  0.60220  0.62516  Biso   1.000  C
  H840     1.0000 0.80030  0.58320  0.62080  Biso   1.000  H
  O337     1.0000 0.13383  0.97304  0.40325  Biso   1.000  O
  O338     1.0000 0.16941  0.97214  0.36868  Biso   1.000  O
  C1177    1.0000 0.15494  0.96534  0.39357  Biso   1.000  C
  C1178    1.0000 0.17339  0.94429  0.40730  Biso   1.000  C
  C1179    1.0000 0.19807  0.93518  0.39941  Biso   1.000  C
  H841     1.0000 0.20800  0.94510  0.38600  Biso   1.000  H
  C1180    1.0000 0.27747  0.85153  0.37491  Biso   1.000  C
  H842     1.0000 0.26150  0.84120  0.37920  Biso   1.000  H
  C1181    1.0000 0.30113  0.84070  0.36359  Biso   1.000  C
  H843     1.0000 0.30240  0.82170  0.35910  Biso   1.000  H
  C1182    1.0000 0.32690  0.88760  0.36291  Biso   1.000  C
  H844     1.0000 0.34310  0.89770  0.35840  Biso   1.000  H
  C1183    1.0000 0.30190  0.89780  0.37484  Biso   1.000  C
  H845     1.0000 0.30030  0.91680  0.37920  Biso   1.000  H
  O339     1.0000 0.13383  0.47304  0.90325  Biso   1.000  O
  O340     1.0000 0.16941  0.47214  0.86868  Biso   1.000  O
  C1184    1.0000 0.15494  0.46534  0.89357  Biso   1.000  C
  C1185    1.0000 0.17339  0.44429  0.90730  Biso   1.000  C
  C1186    1.0000 0.19807  0.43518  0.89941  Biso   1.000  C
  H846     1.0000 0.20800  0.44510  0.88600  Biso   1.000  H
  C1187    1.0000 0.27747  0.35153  0.87491  Biso   1.000  C
  H847     1.0000 0.26150  0.34120  0.87920  Biso   1.000  H
  C1188    1.0000 0.30113  0.34070  0.86359  Biso   1.000  C
  H848     1.0000 0.30240  0.32170  0.85910  Biso   1.000  H
  C1189    1.0000 0.32690  0.38760  0.86291  Biso   1.000  C
  H849     1.0000 0.34310  0.39770  0.85840  Biso   1.000  H
  C1190    1.0000 0.30190  0.39780  0.87484  Biso   1.000  C
  H850     1.0000 0.30030  0.41680  0.87920  Biso   1.000  H
  O341     1.0000 0.63383  0.97304  0.90325  Biso   1.000  O
  O342     1.0000 0.66941  0.97214  0.86868  Biso   1.000  O
  C1191    1.0000 0.65494  0.96534  0.89357  Biso   1.000  C
  C1192    1.0000 0.67339  0.94429  0.90730  Biso   1.000  C
  C1193    1.0000 0.69807  0.93518  0.89941  Biso   1.000  C
  H851     1.0000 0.70800  0.94510  0.88600  Biso   1.000  H
  C1194    1.0000 0.77747  0.85153  0.87491  Biso   1.000  C
  H852     1.0000 0.76150  0.84120  0.87920  Biso   1.000  H
  C1195    1.0000 0.80113  0.84070  0.86359  Biso   1.000  C
  H853     1.0000 0.80240  0.82170  0.85910  Biso   1.000  H
  C1196    1.0000 0.82690  0.88760  0.86291  Biso   1.000  C
  H854     1.0000 0.84310  0.89770  0.85840  Biso   1.000  H
  C1197    1.0000 0.80190  0.89780  0.87484  Biso   1.000  C
  H855     1.0000 0.80030  0.91680  0.87920  Biso   1.000  H
  O343     1.0000 0.63383  0.47304  0.40325  Biso   1.000  O
  O344     1.0000 0.66941  0.47214  0.36868  Biso   1.000  O
  C1198    1.0000 0.65494  0.46534  0.39357  Biso   1.000  C
  C1199    1.0000 0.67339  0.44429  0.40730  Biso   1.000  C
  C1200    1.0000 0.69807  0.43518  0.39941  Biso   1.000  C
  H856     1.0000 0.70800  0.44510  0.38600  Biso   1.000  H
  C1201    1.0000 0.77747  0.35153  0.37491  Biso   1.000  C
  H857     1.0000 0.76150  0.34120  0.37920  Biso   1.000  H
  C1202    1.0000 0.80113  0.34070  0.36359  Biso   1.000  C
  H858     1.0000 0.80240  0.32170  0.35910  Biso   1.000  H
  C1203    1.0000 0.82690  0.38760  0.36291  Biso   1.000  C
  H859     1.0000 0.84310  0.39770  0.35840  Biso   1.000  H
  C1204    1.0000 0.80190  0.39780  0.37484  Biso   1.000  C
  H860     1.0000 0.80030  0.41680  0.37920  Biso   1.000  H
  O345     1.0000 0.86617  0.97304  0.59675  Biso   1.000  O
  O346     1.0000 0.83059  0.97214  0.63132  Biso   1.000  O
  C1205    1.0000 0.84506  0.96534  0.60643  Biso   1.000  C
  C1206    1.0000 0.82661  0.94429  0.59270  Biso   1.000  C
  C1207    1.0000 0.80193  0.93518  0.60059  Biso   1.000  C
  H861     1.0000 0.79200  0.94510  0.61400  Biso   1.000  H
  C1208    1.0000 0.72253  0.85153  0.62509  Biso   1.000  C
  H862     1.0000 0.73850  0.84120  0.62080  Biso   1.000  H
  C1209    1.0000 0.69887  0.84070  0.63641  Biso   1.000  C
  H863     1.0000 0.69760  0.82170  0.64090  Biso   1.000  H
  C1210    1.0000 0.67310  0.88760  0.63709  Biso   1.000  C
  H864     1.0000 0.65690  0.89770  0.64160  Biso   1.000  H
  C1211    1.0000 0.69810  0.89780  0.62516  Biso   1.000  C
  H865     1.0000 0.69970  0.91680  0.62080  Biso   1.000  H
  O347     1.0000 0.86617  0.47304  0.09675  Biso   1.000  O
  O348     1.0000 0.83059  0.47214  0.13132  Biso   1.000  O
  C1212    1.0000 0.84506  0.46534  0.10643  Biso   1.000  C
  C1213    1.0000 0.82661  0.44429  0.09270  Biso   1.000  C
  C1214    1.0000 0.80193  0.43518  0.10059  Biso   1.000  C
  H866     1.0000 0.79200  0.44510  0.11400  Biso   1.000  H
  C1215    1.0000 0.72253  0.35153  0.12509  Biso   1.000  C
  H867     1.0000 0.73850  0.34120  0.12080  Biso   1.000  H
  C1216    1.0000 0.69887  0.34070  0.13641  Biso   1.000  C
  H868     1.0000 0.69760  0.32170  0.14090  Biso   1.000  H
  C1217    1.0000 0.67310  0.38760  0.13709  Biso   1.000  C
  H869     1.0000 0.65690  0.39770  0.14160  Biso   1.000  H
  C1218    1.0000 0.69810  0.39780  0.12516  Biso   1.000  C
  H870     1.0000 0.69970  0.41680  0.12080  Biso   1.000  H
  O349     1.0000 0.36617  0.97304  0.09675  Biso   1.000  O
  O350     1.0000 0.33059  0.97214  0.13132  Biso   1.000  O
  C1219    1.0000 0.34506  0.96534  0.10643  Biso   1.000  C
  C1220    1.0000 0.32661  0.94429  0.09270  Biso   1.000  C
  C1221    1.0000 0.30193  0.93518  0.10059  Biso   1.000  C
  H871     1.0000 0.29200  0.94510  0.11400  Biso   1.000  H
  C1222    1.0000 0.22253  0.85153  0.12509  Biso   1.000  C
  H872     1.0000 0.23850  0.84120  0.12080  Biso   1.000  H
  C1223    1.0000 0.19887  0.84070  0.13641  Biso   1.000  C
  H873     1.0000 0.19760  0.82170  0.14090  Biso   1.000  H
  C1224    1.0000 0.17310  0.88760  0.13709  Biso   1.000  C
  H874     1.0000 0.15690  0.89770  0.14160  Biso   1.000  H
  C1225    1.0000 0.19810  0.89780  0.12516  Biso   1.000  C
  H875     1.0000 0.19970  0.91680  0.12080  Biso   1.000  H
  O351     1.0000 0.36617  0.47304  0.59675  Biso   1.000  O
  O352     1.0000 0.33059  0.47214  0.63132  Biso   1.000  O
  C1226    1.0000 0.34506  0.46534  0.60643  Biso   1.000  C
  C1227    1.0000 0.32661  0.44429  0.59270  Biso   1.000  C
  C1228    1.0000 0.30193  0.43518  0.60059  Biso   1.000  C
  H876     1.0000 0.29200  0.44510  0.61400  Biso   1.000  H
  C1229    1.0000 0.22253  0.35153  0.62509  Biso   1.000  C
  H877     1.0000 0.23850  0.34120  0.62080  Biso   1.000  H
  C1230    1.0000 0.19887  0.34070  0.63641  Biso   1.000  C
  H878     1.0000 0.19760  0.32170  0.64090  Biso   1.000  H
  C1231    1.0000 0.17310  0.38760  0.63709  Biso   1.000  C
  H879     1.0000 0.15690  0.39770  0.64160  Biso   1.000  H
  C1232    1.0000 0.19810  0.39780  0.62516  Biso   1.000  C
  H880     1.0000 0.19970  0.41680  0.62080  Biso   1.000  H
  O353     1.0000 0.02696  0.59675  0.13383  Biso   1.000  O
  O354     1.0000 0.02786  0.63132  0.16941  Biso   1.000  O
  C1233    1.0000 0.03466  0.60643  0.15494  Biso   1.000  C
  C1234    1.0000 0.05571  0.59270  0.17339  Biso   1.000  C
  C1235    1.0000 0.06482  0.60059  0.19807  Biso   1.000  C
  H881     1.0000 0.05490  0.61400  0.20800  Biso   1.000  H
  C1236    1.0000 0.14847  0.62509  0.27747  Biso   1.000  C
  H882     1.0000 0.15880  0.62080  0.26150  Biso   1.000  H
  C1237    1.0000 0.15930  0.63641  0.30113  Biso   1.000  C
  H883     1.0000 0.17830  0.64090  0.30240  Biso   1.000  H
  C1238    1.0000 0.11240  0.63709  0.32690  Biso   1.000  C
  H884     1.0000 0.10230  0.64160  0.34310  Biso   1.000  H
  C1239    1.0000 0.10220  0.62516  0.30190  Biso   1.000  C
  H885     1.0000 0.08320  0.62080  0.30030  Biso   1.000  H
  O355     1.0000 0.02696  0.09675  0.63383  Biso   1.000  O
  O356     1.0000 0.02786  0.13132  0.66941  Biso   1.000  O
  C1240    1.0000 0.03466  0.10643  0.65494  Biso   1.000  C
  C1241    1.0000 0.05571  0.09270  0.67339  Biso   1.000  C
  C1242    1.0000 0.06482  0.10059  0.69807  Biso   1.000  C
  H886     1.0000 0.05490  0.11400  0.70800  Biso   1.000  H
  C1243    1.0000 0.14847  0.12509  0.77747  Biso   1.000  C
  H887     1.0000 0.15880  0.12080  0.76150  Biso   1.000  H
  C1244    1.0000 0.15930  0.13641  0.80113  Biso   1.000  C
  H888     1.0000 0.17830  0.14090  0.80240  Biso   1.000  H
  C1245    1.0000 0.11240  0.13709  0.82690  Biso   1.000  C
  H889     1.0000 0.10230  0.14160  0.84310  Biso   1.000  H
  C1246    1.0000 0.10220  0.12516  0.80190  Biso   1.000  C
  H890     1.0000 0.08320  0.12080  0.80030  Biso   1.000  H
  O357     1.0000 0.52696  0.59675  0.63383  Biso   1.000  O
  O358     1.0000 0.52786  0.63132  0.66941  Biso   1.000  O
  C1247    1.0000 0.53466  0.60643  0.65494  Biso   1.000  C
  C1248    1.0000 0.55571  0.59270  0.67339  Biso   1.000  C
  C1249    1.0000 0.56482  0.60059  0.69807  Biso   1.000  C
  H891     1.0000 0.55490  0.61400  0.70800  Biso   1.000  H
  C1250    1.0000 0.64847  0.62509  0.77747  Biso   1.000  C
  H892     1.0000 0.65880  0.62080  0.76150  Biso   1.000  H
  C1251    1.0000 0.65930  0.63641  0.80113  Biso   1.000  C
  H893     1.0000 0.67830  0.64090  0.80240  Biso   1.000  H
  C1252    1.0000 0.61240  0.63709  0.82690  Biso   1.000  C
  H894     1.0000 0.60230  0.64160  0.84310  Biso   1.000  H
  C1253    1.0000 0.60220  0.62516  0.80190  Biso   1.000  C
  H895     1.0000 0.58320  0.62080  0.80030  Biso   1.000  H
  O359     1.0000 0.52696  0.09675  0.13383  Biso   1.000  O
  O360     1.0000 0.52786  0.13132  0.16941  Biso   1.000  O
  C1254    1.0000 0.53466  0.10643  0.15494  Biso   1.000  C
  C1255    1.0000 0.55571  0.09270  0.17339  Biso   1.000  C
  C1256    1.0000 0.56482  0.10059  0.19807  Biso   1.000  C
  H896     1.0000 0.55490  0.11400  0.20800  Biso   1.000  H
  C1257    1.0000 0.64847  0.12509  0.27747  Biso   1.000  C
  H897     1.0000 0.65880  0.12080  0.26150  Biso   1.000  H
  C1258    1.0000 0.65930  0.13641  0.30113  Biso   1.000  C
  H898     1.0000 0.67830  0.14090  0.30240  Biso   1.000  H
  C1259    1.0000 0.61240  0.13709  0.32690  Biso   1.000  C
  H899     1.0000 0.60230  0.14160  0.34310  Biso   1.000  H
  C1260    1.0000 0.60220  0.12516  0.30190  Biso   1.000  C
  H900     1.0000 0.58320  0.12080  0.30030  Biso   1.000  H
  O361     1.0000 0.02696  0.40325  0.86617  Biso   1.000  O
  O362     1.0000 0.02786  0.36868  0.83059  Biso   1.000  O
  C1261    1.0000 0.03466  0.39357  0.84506  Biso   1.000  C
  C1262    1.0000 0.05571  0.40730  0.82661  Biso   1.000  C
  C1263    1.0000 0.06482  0.39941  0.80193  Biso   1.000  C
  H901     1.0000 0.05490  0.38600  0.79200  Biso   1.000  H
  C1264    1.0000 0.14847  0.37491  0.72253  Biso   1.000  C
  H902     1.0000 0.15880  0.37920  0.73850  Biso   1.000  H
  C1265    1.0000 0.15930  0.36359  0.69887  Biso   1.000  C
  H903     1.0000 0.17830  0.35910  0.69760  Biso   1.000  H
  C1266    1.0000 0.11240  0.36291  0.67310  Biso   1.000  C
  H904     1.0000 0.10230  0.35840  0.65690  Biso   1.000  H
  C1267    1.0000 0.10220  0.37484  0.69810  Biso   1.000  C
  H905     1.0000 0.08320  0.37920  0.69970  Biso   1.000  H
  O363     1.0000 0.02696  0.90325  0.36617  Biso   1.000  O
  O364     1.0000 0.02786  0.86868  0.33059  Biso   1.000  O
  C1268    1.0000 0.03466  0.89357  0.34506  Biso   1.000  C
  C1269    1.0000 0.05571  0.90730  0.32661  Biso   1.000  C
  C1270    1.0000 0.06482  0.89941  0.30193  Biso   1.000  C
  H906     1.0000 0.05490  0.88600  0.29200  Biso   1.000  H
  C1271    1.0000 0.14847  0.87491  0.22253  Biso   1.000  C
  H907     1.0000 0.15880  0.87920  0.23850  Biso   1.000  H
  C1272    1.0000 0.15930  0.86359  0.19887  Biso   1.000  C
  H908     1.0000 0.17830  0.85910  0.19760  Biso   1.000  H
  C1273    1.0000 0.11240  0.86291  0.17310  Biso   1.000  C
  H909     1.0000 0.10230  0.85840  0.15690  Biso   1.000  H
  C1274    1.0000 0.10220  0.87484  0.19810  Biso   1.000  C
  H910     1.0000 0.08320  0.87920  0.19970  Biso   1.000  H
  O365     1.0000 0.52696  0.40325  0.36617  Biso   1.000  O
  O366     1.0000 0.52786  0.36868  0.33059  Biso   1.000  O
  C1275    1.0000 0.53466  0.39357  0.34506  Biso   1.000  C
  C1276    1.0000 0.55571  0.40730  0.32661  Biso   1.000  C
  C1277    1.0000 0.56482  0.39941  0.30193  Biso   1.000  C
  H911     1.0000 0.55490  0.38600  0.29200  Biso   1.000  H
  C1278    1.0000 0.64847  0.37491  0.22253  Biso   1.000  C
  H912     1.0000 0.65880  0.37920  0.23850  Biso   1.000  H
  C1279    1.0000 0.65930  0.36359  0.19887  Biso   1.000  C
  H913     1.0000 0.67830  0.35910  0.19760  Biso   1.000  H
  C1280    1.0000 0.61240  0.36291  0.17310  Biso   1.000  C
  H914     1.0000 0.60230  0.35840  0.15690  Biso   1.000  H
  C1281    1.0000 0.60220  0.37484  0.19810  Biso   1.000  C
  H915     1.0000 0.58320  0.37920  0.19970  Biso   1.000  H
  O367     1.0000 0.52696  0.90325  0.86617  Biso   1.000  O
  O368     1.0000 0.52786  0.86868  0.83059  Biso   1.000  O
  C1282    1.0000 0.53466  0.89357  0.84506  Biso   1.000  C
  C1283    1.0000 0.55571  0.90730  0.82661  Biso   1.000  C
  C1284    1.0000 0.56482  0.89941  0.80193  Biso   1.000  C
  H916     1.0000 0.55490  0.88600  0.79200  Biso   1.000  H
  C1285    1.0000 0.64847  0.87491  0.72253  Biso   1.000  C
  H917     1.0000 0.65880  0.87920  0.73850  Biso   1.000  H
  C1286    1.0000 0.65930  0.86359  0.69887  Biso   1.000  C
  H918     1.0000 0.67830  0.85910  0.69760  Biso   1.000  H
  C1287    1.0000 0.61240  0.86291  0.67310  Biso   1.000  C
  H919     1.0000 0.60230  0.85840  0.65690  Biso   1.000  H
  C1288    1.0000 0.60220  0.87484  0.69810  Biso   1.000  C
  H920     1.0000 0.58320  0.87920  0.69970  Biso   1.000  H
  O369     1.0000 0.97304  0.59675  0.86617  Biso   1.000  O
  O370     1.0000 0.97214  0.63132  0.83059  Biso   1.000  O
  C1289    1.0000 0.96534  0.60643  0.84506  Biso   1.000  C
  C1290    1.0000 0.94429  0.59270  0.82661  Biso   1.000  C
  C1291    1.0000 0.93518  0.60059  0.80193  Biso   1.000  C
  H921     1.0000 0.94510  0.61400  0.79200  Biso   1.000  H
  C1292    1.0000 0.85153  0.62509  0.72253  Biso   1.000  C
  H922     1.0000 0.84120  0.62080  0.73850  Biso   1.000  H
  C1293    1.0000 0.84070  0.63641  0.69887  Biso   1.000  C
  H923     1.0000 0.82170  0.64090  0.69760  Biso   1.000  H
  C1294    1.0000 0.88760  0.63709  0.67310  Biso   1.000  C
  H924     1.0000 0.89770  0.64160  0.65690  Biso   1.000  H
  C1295    1.0000 0.89780  0.62516  0.69810  Biso   1.000  C
  H925     1.0000 0.91680  0.62080  0.69970  Biso   1.000  H
  O371     1.0000 0.97304  0.09675  0.36617  Biso   1.000  O
  O372     1.0000 0.97214  0.13132  0.33059  Biso   1.000  O
  C1296    1.0000 0.96534  0.10643  0.34506  Biso   1.000  C
  C1297    1.0000 0.94429  0.09270  0.32661  Biso   1.000  C
  C1298    1.0000 0.93518  0.10059  0.30193  Biso   1.000  C
  H926     1.0000 0.94510  0.11400  0.29200  Biso   1.000  H
  C1299    1.0000 0.85153  0.12509  0.22253  Biso   1.000  C
  H927     1.0000 0.84120  0.12080  0.23850  Biso   1.000  H
  C1300    1.0000 0.84070  0.13641  0.19887  Biso   1.000  C
  H928     1.0000 0.82170  0.14090  0.19760  Biso   1.000  H
  C1301    1.0000 0.88760  0.13709  0.17310  Biso   1.000  C
  H929     1.0000 0.89770  0.14160  0.15690  Biso   1.000  H
  C1302    1.0000 0.89780  0.12516  0.19810  Biso   1.000  C
  H930     1.0000 0.91680  0.12080  0.19970  Biso   1.000  H
  O373     1.0000 0.47304  0.59675  0.36617  Biso   1.000  O
  O374     1.0000 0.47214  0.63132  0.33059  Biso   1.000  O
  C1303    1.0000 0.46534  0.60643  0.34506  Biso   1.000  C
  C1304    1.0000 0.44429  0.59270  0.32661  Biso   1.000  C
  C1305    1.0000 0.43518  0.60059  0.30193  Biso   1.000  C
  H931     1.0000 0.44510  0.61400  0.29200  Biso   1.000  H
  C1306    1.0000 0.35153  0.62509  0.22253  Biso   1.000  C
  H932     1.0000 0.34120  0.62080  0.23850  Biso   1.000  H
  C1307    1.0000 0.34070  0.63641  0.19887  Biso   1.000  C
  H933     1.0000 0.32170  0.64090  0.19760  Biso   1.000  H
  C1308    1.0000 0.38760  0.63709  0.17310  Biso   1.000  C
  H934     1.0000 0.39770  0.64160  0.15690  Biso   1.000  H
  C1309    1.0000 0.39780  0.62516  0.19810  Biso   1.000  C
  H935     1.0000 0.41680  0.62080  0.19970  Biso   1.000  H
  O375     1.0000 0.47304  0.09675  0.86617  Biso   1.000  O
  O376     1.0000 0.47214  0.13132  0.83059  Biso   1.000  O
  C1310    1.0000 0.46534  0.10643  0.84506  Biso   1.000  C
  C1311    1.0000 0.44429  0.09270  0.82661  Biso   1.000  C
  C1312    1.0000 0.43518  0.10059  0.80193  Biso   1.000  C
  H936     1.0000 0.44510  0.11400  0.79200  Biso   1.000  H
  C1313    1.0000 0.35153  0.12509  0.72253  Biso   1.000  C
  H937     1.0000 0.34120  0.12080  0.73850  Biso   1.000  H
  C1314    1.0000 0.34070  0.13641  0.69887  Biso   1.000  C
  H938     1.0000 0.32170  0.14090  0.69760  Biso   1.000  H
  C1315    1.0000 0.38760  0.13709  0.67310  Biso   1.000  C
  H939     1.0000 0.39770  0.14160  0.65690  Biso   1.000  H
  C1316    1.0000 0.39780  0.12516  0.69810  Biso   1.000  C
  H940     1.0000 0.41680  0.12080  0.69970  Biso   1.000  H
  O377     1.0000 0.97304  0.40325  0.13383  Biso   1.000  O
  O378     1.0000 0.97214  0.36868  0.16941  Biso   1.000  O
  C1317    1.0000 0.96534  0.39357  0.15494  Biso   1.000  C
  C1318    1.0000 0.94429  0.40730  0.17339  Biso   1.000  C
  C1319    1.0000 0.93518  0.39941  0.19807  Biso   1.000  C
  H941     1.0000 0.94510  0.38600  0.20800  Biso   1.000  H
  C1320    1.0000 0.85153  0.37491  0.27747  Biso   1.000  C
  H942     1.0000 0.84120  0.37920  0.26150  Biso   1.000  H
  C1321    1.0000 0.84070  0.36359  0.30113  Biso   1.000  C
  H943     1.0000 0.82170  0.35910  0.30240  Biso   1.000  H
  C1322    1.0000 0.88760  0.36291  0.32690  Biso   1.000  C
  H944     1.0000 0.89770  0.35840  0.34310  Biso   1.000  H
  C1323    1.0000 0.89780  0.37484  0.30190  Biso   1.000  C
  H945     1.0000 0.91680  0.37920  0.30030  Biso   1.000  H
  O379     1.0000 0.97304  0.90325  0.63383  Biso   1.000  O
  O380     1.0000 0.97214  0.86868  0.66941  Biso   1.000  O
  C1324    1.0000 0.96534  0.89357  0.65494  Biso   1.000  C
  C1325    1.0000 0.94429  0.90730  0.67339  Biso   1.000  C
  C1326    1.0000 0.93518  0.89941  0.69807  Biso   1.000  C
  H946     1.0000 0.94510  0.88600  0.70800  Biso   1.000  H
  C1327    1.0000 0.85153  0.87491  0.77747  Biso   1.000  C
  H947     1.0000 0.84120  0.87920  0.76150  Biso   1.000  H
  C1328    1.0000 0.84070  0.86359  0.80113  Biso   1.000  C
  H948     1.0000 0.82170  0.85910  0.80240  Biso   1.000  H
  C1329    1.0000 0.88760  0.86291  0.82690  Biso   1.000  C
  H949     1.0000 0.89770  0.85840  0.84310  Biso   1.000  H
  C1330    1.0000 0.89780  0.87484  0.80190  Biso   1.000  C
  H950     1.0000 0.91680  0.87920  0.80030  Biso   1.000  H
  O381     1.0000 0.47304  0.40325  0.63383  Biso   1.000  O
  O382     1.0000 0.47214  0.36868  0.66941  Biso   1.000  O
  C1331    1.0000 0.46534  0.39357  0.65494  Biso   1.000  C
  C1332    1.0000 0.44429  0.40730  0.67339  Biso   1.000  C
  C1333    1.0000 0.43518  0.39941  0.69807  Biso   1.000  C
  H951     1.0000 0.44510  0.38600  0.70800  Biso   1.000  H
  C1334    1.0000 0.35153  0.37491  0.77747  Biso   1.000  C
  H952     1.0000 0.34120  0.37920  0.76150  Biso   1.000  H
  C1335    1.0000 0.34070  0.36359  0.80113  Biso   1.000  C
  H953     1.0000 0.32170  0.35910  0.80240  Biso   1.000  H
  C1336    1.0000 0.38760  0.36291  0.82690  Biso   1.000  C
  H954     1.0000 0.39770  0.35840  0.84310  Biso   1.000  H
  C1337    1.0000 0.39780  0.37484  0.80190  Biso   1.000  C
  H955     1.0000 0.41680  0.37920  0.80030  Biso   1.000  H
  O383     1.0000 0.47304  0.90325  0.13383  Biso   1.000  O
  O384     1.0000 0.47214  0.86868  0.16941  Biso   1.000  O
  C1338    1.0000 0.46534  0.89357  0.15494  Biso   1.000  C
  C1339    1.0000 0.44429  0.90730  0.17339  Biso   1.000  C
  C1340    1.0000 0.43518  0.89941  0.19807  Biso   1.000  C
  H956     1.0000 0.44510  0.88600  0.20800  Biso   1.000  H
  C1341    1.0000 0.35153  0.87491  0.27747  Biso   1.000  C
  H957     1.0000 0.34120  0.87920  0.26150  Biso   1.000  H
  C1342    1.0000 0.34070  0.86359  0.30113  Biso   1.000  C
  H958     1.0000 0.32170  0.85910  0.30240  Biso   1.000  H
  C1343    1.0000 0.38760  0.86291  0.32690  Biso   1.000  C
  H959     1.0000 0.39770  0.85840  0.34310  Biso   1.000  H
  C1344    1.0000 0.39780  0.87484  0.30190  Biso   1.000  C
  H960     1.0000 0.41680  0.87920  0.30030  Biso   1.000  H
  Cu1      1.0000 0.15331  0.34669  0.00000  Biso   1.000  Cu
  Cu2      1.0000 0.11439  0.38561  0.00000  Biso   1.000  Cu
  Cu3      1.0000 0.15331  0.84669  0.50000  Biso   1.000  Cu
  Cu4      1.0000 0.11439  0.88561  0.50000  Biso   1.000  Cu
  Cu5      1.0000 0.84669  0.65331  0.00000  Biso   1.000  Cu
  Cu6      1.0000 0.88561  0.61439  0.00000  Biso   1.000  Cu
  Cu7      1.0000 0.84669  0.15331  0.50000  Biso   1.000  Cu
  Cu8      1.0000 0.88561  0.11439  0.50000  Biso   1.000  Cu
  Cu9      1.0000 0.34669  0.15331  0.00000  Biso   1.000  Cu
  Cu10     1.0000 0.38561  0.11439  0.00000  Biso   1.000  Cu
  Cu11     1.0000 0.84669  0.34669  0.00000  Biso   1.000  Cu
  Cu12     1.0000 0.88561  0.38561  0.00000  Biso   1.000  Cu
  Cu13     1.0000 0.84669  0.84669  0.50000  Biso   1.000  Cu
  Cu14     1.0000 0.88561  0.88561  0.50000  Biso   1.000  Cu
  Cu15     1.0000 0.34669  0.34669  0.50000  Biso   1.000  Cu
  Cu16     1.0000 0.38561  0.38561  0.50000  Biso   1.000  Cu
  Cu17     1.0000 0.15331  0.65331  0.00000  Biso   1.000  Cu
  Cu18     1.0000 0.11439  0.61439  0.00000  Biso   1.000  Cu
  Cu19     1.0000 0.15331  0.15331  0.50000  Biso   1.000  Cu
  Cu20     1.0000 0.11439  0.11439  0.50000  Biso   1.000  Cu
  Cu21     1.0000 0.00000  0.15331  0.34669  Biso   1.000  Cu
  Cu22     1.0000 0.00000  0.11439  0.38561  Biso   1.000  Cu
  Cu23     1.0000 0.50000  0.15331  0.84669  Biso   1.000  Cu
  Cu24     1.0000 0.50000  0.11439  0.88561  Biso   1.000  Cu
  Cu25     1.0000 0.00000  0.84669  0.65331  Biso   1.000  Cu
  Cu26     1.0000 0.00000  0.88561  0.61439  Biso   1.000  Cu
  Cu27     1.0000 0.00000  0.34669  0.15331  Biso   1.000  Cu
  Cu28     1.0000 0.00000  0.38561  0.11439  Biso   1.000  Cu
  Cu29     1.0000 0.50000  0.84669  0.15331  Biso   1.000  Cu
  Cu30     1.0000 0.50000  0.88561  0.11439  Biso   1.000  Cu
  Cu31     1.0000 0.00000  0.84669  0.34669  Biso   1.000  Cu
  Cu32     1.0000 0.00000  0.88561  0.38561  Biso   1.000  Cu
  Cu33     1.0000 0.50000  0.84669  0.84669  Biso   1.000  Cu
  Cu34     1.0000 0.50000  0.88561  0.88561  Biso   1.000  Cu
  Cu35     1.0000 0.50000  0.34669  0.34669  Biso   1.000  Cu
  Cu36     1.0000 0.50000  0.38561  0.38561  Biso   1.000  Cu
  Cu37     1.0000 0.00000  0.15331  0.65331  Biso   1.000  Cu
  Cu38     1.0000 0.00000  0.11439  0.61439  Biso   1.000  Cu
  Cu39     1.0000 0.50000  0.15331  0.15331  Biso   1.000  Cu
  Cu40     1.0000 0.50000  0.11439  0.11439  Biso   1.000  Cu
  Cu41     1.0000 0.34669  0.00000  0.15331  Biso   1.000  Cu
  Cu42     1.0000 0.38561  0.00000  0.11439  Biso   1.000  Cu
  Cu43     1.0000 0.34669  0.50000  0.65331  Biso   1.000  Cu
  Cu44     1.0000 0.38561  0.50000  0.61439  Biso   1.000  Cu
  Cu45     1.0000 0.65331  0.00000  0.84669  Biso   1.000  Cu
  Cu46     1.0000 0.61439  0.00000  0.88561  Biso   1.000  Cu
  Cu47     1.0000 0.65331  0.50000  0.34669  Biso   1.000  Cu
  Cu48     1.0000 0.61439  0.50000  0.38561  Biso   1.000  Cu
  Cu49     1.0000 0.15331  0.00000  0.34669  Biso   1.000  Cu
  Cu50     1.0000 0.11439  0.00000  0.38561  Biso   1.000  Cu
  Cu51     1.0000 0.34669  0.00000  0.84669  Biso   1.000  Cu
  Cu52     1.0000 0.38561  0.00000  0.88561  Biso   1.000  Cu
  Cu53     1.0000 0.34669  0.50000  0.34669  Biso   1.000  Cu
  Cu54     1.0000 0.38561  0.50000  0.38561  Biso   1.000  Cu
  Cu55     1.0000 0.65331  0.00000  0.15331  Biso   1.000  Cu
  Cu56     1.0000 0.61439  0.00000  0.11439  Biso   1.000  Cu
  Cu57     1.0000 0.65331  0.50000  0.65331  Biso   1.000  Cu
  Cu58     1.0000 0.61439  0.50000  0.61439  Biso   1.000  Cu
  Cu59     1.0000 0.15331  0.50000  0.15331  Biso   1.000  Cu
  Cu60     1.0000 0.11439  0.50000  0.11439  Biso   1.000  Cu
  Cu61     1.0000 0.34669  0.65331  0.50000  Biso   1.000  Cu
  Cu62     1.0000 0.38561  0.61439  0.50000  Biso   1.000  Cu
  Cu63     1.0000 0.65331  0.84669  0.00000  Biso   1.000  Cu
  Cu64     1.0000 0.61439  0.88561  0.00000  Biso   1.000  Cu
  Cu65     1.0000 0.65331  0.34669  0.50000  Biso   1.000  Cu
  Cu66     1.0000 0.61439  0.38561  0.50000  Biso   1.000  Cu
  Cu67     1.0000 0.34669  0.84669  0.00000  Biso   1.000  Cu
  Cu68     1.0000 0.38561  0.88561  0.00000  Biso   1.000  Cu
  Cu69     1.0000 0.65331  0.15331  0.00000  Biso   1.000  Cu
  Cu70     1.0000 0.61439  0.11439  0.00000  Biso   1.000  Cu
  Cu71     1.0000 0.65331  0.65331  0.50000  Biso   1.000  Cu
  Cu72     1.0000 0.61439  0.61439  0.50000  Biso   1.000  Cu
  Cu73     1.0000 0.15331  0.00000  0.65331  Biso   1.000  Cu
  Cu74     1.0000 0.11439  0.00000  0.61439  Biso   1.000  Cu
  Cu75     1.0000 0.84669  0.00000  0.34669  Biso   1.000  Cu
  Cu76     1.0000 0.88561  0.00000  0.38561  Biso   1.000  Cu
  Cu77     1.0000 0.84669  0.50000  0.84669  Biso   1.000  Cu
  Cu78     1.0000 0.88561  0.50000  0.88561  Biso   1.000  Cu
  Cu79     1.0000 0.84669  0.00000  0.65331  Biso   1.000  Cu
  Cu80     1.0000 0.88561  0.00000  0.61439  Biso   1.000  Cu
  Cu81     1.0000 0.84669  0.50000  0.15331  Biso   1.000  Cu
  Cu82     1.0000 0.88561  0.50000  0.11439  Biso   1.000  Cu
  Cu83     1.0000 0.15331  0.50000  0.84669  Biso   1.000  Cu
  Cu84     1.0000 0.11439  0.50000  0.88561  Biso   1.000  Cu
  Cu85     1.0000 0.00000  0.34669  0.84669  Biso   1.000  Cu
  Cu86     1.0000 0.00000  0.38561  0.88561  Biso   1.000  Cu
  Cu87     1.0000 0.00000  0.65331  0.15331  Biso   1.000  Cu
  Cu88     1.0000 0.00000  0.61439  0.11439  Biso   1.000  Cu
  Cu89     1.0000 0.50000  0.65331  0.65331  Biso   1.000  Cu
  Cu90     1.0000 0.50000  0.61439  0.61439  Biso   1.000  Cu
  Cu91     1.0000 0.50000  0.34669  0.65331  Biso   1.000  Cu
  Cu92     1.0000 0.50000  0.38561  0.61439  Biso   1.000  Cu
  Cu93     1.0000 0.00000  0.65331  0.84669  Biso   1.000  Cu
  Cu94     1.0000 0.00000  0.61439  0.88561  Biso   1.000  Cu
  Cu95     1.0000 0.50000  0.65331  0.34669  Biso   1.000  Cu
  Cu96     1.0000 0.50000  0.61439  0.38561  Biso   1.000  Cu
  C1345    1.0000 0.16138  0.42953  0.92953  Biso   1.000  C
  H961     1.0000 0.14370  0.43500  0.93500  Biso   1.000  H
  C1346    1.0000 0.20980  0.41080  0.91080  Biso   1.000  C
  C1347    1.0000 0.23653  0.40056  0.90056  Biso   1.000  C
  C1348    1.0000 0.25548  0.39144  0.89144  Biso   1.000  C
  C1349    1.0000 0.28034  0.37940  0.87940  Biso   1.000  C
  C1350    1.0000 0.32200  0.35943  0.85943  Biso   1.000  C
  C1351    1.0000 0.66138  0.42953  0.42953  Biso   1.000  C
  H962     1.0000 0.64370  0.43500  0.43500  Biso   1.000  H
  C1352    1.0000 0.70980  0.41080  0.41080  Biso   1.000  C
  C1353    1.0000 0.73653  0.40056  0.40056  Biso   1.000  C
  C1354    1.0000 0.75548  0.39144  0.39144  Biso   1.000  C
  C1355    1.0000 0.78034  0.37940  0.37940  Biso   1.000  C
  C1356    1.0000 0.82200  0.35943  0.35943  Biso   1.000  C
  C1357    1.0000 0.83862  0.57047  0.92953  Biso   1.000  C
  H963     1.0000 0.85630  0.56500  0.93500  Biso   1.000  H
  C1358    1.0000 0.79020  0.58920  0.91080  Biso   1.000  C
  C1359    1.0000 0.76347  0.59944  0.90056  Biso   1.000  C
  C1360    1.0000 0.74452  0.60856  0.89144  Biso   1.000  C
  C1361    1.0000 0.71966  0.62060  0.87940  Biso   1.000  C
  C1362    1.0000 0.67800  0.64057  0.85943  Biso   1.000  C
  C1363    1.0000 0.83862  0.07047  0.42953  Biso   1.000  C
  H964     1.0000 0.85630  0.06500  0.43500  Biso   1.000  H
  C1364    1.0000 0.79020  0.08920  0.41080  Biso   1.000  C
  C1365    1.0000 0.76347  0.09944  0.40056  Biso   1.000  C
  C1366    1.0000 0.74452  0.10856  0.39144  Biso   1.000  C
  C1367    1.0000 0.71966  0.12060  0.37940  Biso   1.000  C
  C1368    1.0000 0.67800  0.14057  0.35943  Biso   1.000  C
  C1369    1.0000 0.33862  0.57047  0.42953  Biso   1.000  C
  H965     1.0000 0.35630  0.56500  0.43500  Biso   1.000  H
  C1370    1.0000 0.29020  0.58920  0.41080  Biso   1.000  C
  C1371    1.0000 0.26347  0.59944  0.40056  Biso   1.000  C
  C1372    1.0000 0.24452  0.60856  0.39144  Biso   1.000  C
  C1373    1.0000 0.21966  0.62060  0.37940  Biso   1.000  C
  C1374    1.0000 0.17800  0.64057  0.35943  Biso   1.000  C
  C1375    1.0000 0.83862  0.42953  0.07047  Biso   1.000  C
  H966     1.0000 0.85630  0.43500  0.06500  Biso   1.000  H
  C1376    1.0000 0.79020  0.41080  0.08920  Biso   1.000  C
  C1377    1.0000 0.76347  0.40056  0.09944  Biso   1.000  C
  C1378    1.0000 0.74452  0.39144  0.10856  Biso   1.000  C
  C1379    1.0000 0.71966  0.37940  0.12060  Biso   1.000  C
  C1380    1.0000 0.67800  0.35943  0.14057  Biso   1.000  C
  C1381    1.0000 0.33862  0.42953  0.57047  Biso   1.000  C
  H967     1.0000 0.35630  0.43500  0.56500  Biso   1.000  H
  C1382    1.0000 0.29020  0.41080  0.58920  Biso   1.000  C
  C1383    1.0000 0.26347  0.40056  0.59944  Biso   1.000  C
  C1384    1.0000 0.24452  0.39144  0.60856  Biso   1.000  C
  C1385    1.0000 0.21966  0.37940  0.62060  Biso   1.000  C
  C1386    1.0000 0.17800  0.35943  0.64057  Biso   1.000  C
  C1387    1.0000 0.16138  0.57047  0.07047  Biso   1.000  C
  H968     1.0000 0.14370  0.56500  0.06500  Biso   1.000  H
  C1388    1.0000 0.20980  0.58920  0.08920  Biso   1.000  C
  C1389    1.0000 0.23653  0.59944  0.09944  Biso   1.000  C
  C1390    1.0000 0.25548  0.60856  0.10856  Biso   1.000  C
  C1391    1.0000 0.28034  0.62060  0.12060  Biso   1.000  C
  C1392    1.0000 0.32200  0.64057  0.14057  Biso   1.000  C
  C1393    1.0000 0.66138  0.57047  0.57047  Biso   1.000  C
  H969     1.0000 0.64370  0.56500  0.56500  Biso   1.000  H
  C1394    1.0000 0.70980  0.58920  0.58920  Biso   1.000  C
  C1395    1.0000 0.73653  0.59944  0.59944  Biso   1.000  C
  C1396    1.0000 0.75548  0.60856  0.60856  Biso   1.000  C
  C1397    1.0000 0.78034  0.62060  0.62060  Biso   1.000  C
  C1398    1.0000 0.82200  0.64057  0.64057  Biso   1.000  C
  C1399    1.0000 0.66138  0.07047  0.07047  Biso   1.000  C
  H970     1.0000 0.64370  0.06500  0.06500  Biso   1.000  H
  C1400    1.0000 0.70980  0.08920  0.08920  Biso   1.000  C
  C1401    1.0000 0.73653  0.09944  0.09944  Biso   1.000  C
  C1402    1.0000 0.75548  0.10856  0.10856  Biso   1.000  C
  C1403    1.0000 0.78034  0.12060  0.12060  Biso   1.000  C
  C1404    1.0000 0.82200  0.14057  0.14057  Biso   1.000  C
  C1405    1.0000 0.92953  0.16138  0.42953  Biso   1.000  C
  H971     1.0000 0.93500  0.14370  0.43500  Biso   1.000  H
  C1406    1.0000 0.91080  0.20980  0.41080  Biso   1.000  C
  C1407    1.0000 0.90056  0.23653  0.40056  Biso   1.000  C
  C1408    1.0000 0.89144  0.25548  0.39144  Biso   1.000  C
  C1409    1.0000 0.87940  0.28034  0.37940  Biso   1.000  C
  C1410    1.0000 0.85943  0.32200  0.35943  Biso   1.000  C
  C1411    1.0000 0.92953  0.66138  0.92953  Biso   1.000  C
  H972     1.0000 0.93500  0.64370  0.93500  Biso   1.000  H
  C1412    1.0000 0.91080  0.70980  0.91080  Biso   1.000  C
  C1413    1.0000 0.90056  0.73653  0.90056  Biso   1.000  C
  C1414    1.0000 0.89144  0.75548  0.89144  Biso   1.000  C
  C1415    1.0000 0.87940  0.78034  0.87940  Biso   1.000  C
  C1416    1.0000 0.85943  0.82200  0.85943  Biso   1.000  C
  C1417    1.0000 0.42953  0.66138  0.42953  Biso   1.000  C
  H973     1.0000 0.43500  0.64370  0.43500  Biso   1.000  H
  C1418    1.0000 0.41080  0.70980  0.41080  Biso   1.000  C
  C1419    1.0000 0.40056  0.73653  0.40056  Biso   1.000  C
  C1420    1.0000 0.39144  0.75548  0.39144  Biso   1.000  C
  C1421    1.0000 0.37940  0.78034  0.37940  Biso   1.000  C
  C1422    1.0000 0.35943  0.82200  0.35943  Biso   1.000  C
  C1423    1.0000 0.92953  0.83862  0.57047  Biso   1.000  C
  H974     1.0000 0.93500  0.85630  0.56500  Biso   1.000  H
  C1424    1.0000 0.91080  0.79020  0.58920  Biso   1.000  C
  C1425    1.0000 0.90056  0.76347  0.59944  Biso   1.000  C
  C1426    1.0000 0.89144  0.74452  0.60856  Biso   1.000  C
  C1427    1.0000 0.87940  0.71966  0.62060  Biso   1.000  C
  C1428    1.0000 0.85943  0.67800  0.64057  Biso   1.000  C
  C1429    1.0000 0.92953  0.33862  0.07047  Biso   1.000  C
  H975     1.0000 0.93500  0.35630  0.06500  Biso   1.000  H
  C1430    1.0000 0.91080  0.29020  0.08920  Biso   1.000  C
  C1431    1.0000 0.90056  0.26347  0.09944  Biso   1.000  C
  C1432    1.0000 0.89144  0.24452  0.10856  Biso   1.000  C
  C1433    1.0000 0.87940  0.21966  0.12060  Biso   1.000  C
  C1434    1.0000 0.85943  0.17800  0.14057  Biso   1.000  C
  C1435    1.0000 0.42953  0.83862  0.07047  Biso   1.000  C
  H976     1.0000 0.43500  0.85630  0.06500  Biso   1.000  H
  C1436    1.0000 0.41080  0.79020  0.08920  Biso   1.000  C
  C1437    1.0000 0.40056  0.76347  0.09944  Biso   1.000  C
  C1438    1.0000 0.39144  0.74452  0.10856  Biso   1.000  C
  C1439    1.0000 0.37940  0.71966  0.12060  Biso   1.000  C
  C1440    1.0000 0.35943  0.67800  0.14057  Biso   1.000  C
  C1441    1.0000 0.07047  0.83862  0.42953  Biso   1.000  C
  H977     1.0000 0.06500  0.85630  0.43500  Biso   1.000  H
  C1442    1.0000 0.08920  0.79020  0.41080  Biso   1.000  C
  C1443    1.0000 0.09944  0.76347  0.40056  Biso   1.000  C
  C1444    1.0000 0.10856  0.74452  0.39144  Biso   1.000  C
  C1445    1.0000 0.12060  0.71966  0.37940  Biso   1.000  C
  C1446    1.0000 0.14057  0.67800  0.35943  Biso   1.000  C
  C1447    1.0000 0.07047  0.33862  0.92953  Biso   1.000  C
  H978     1.0000 0.06500  0.35630  0.93500  Biso   1.000  H
  C1448    1.0000 0.08920  0.29020  0.91080  Biso   1.000  C
  C1449    1.0000 0.09944  0.26347  0.90056  Biso   1.000  C
  C1450    1.0000 0.10856  0.24452  0.89144  Biso   1.000  C
  C1451    1.0000 0.12060  0.21966  0.87940  Biso   1.000  C
  C1452    1.0000 0.14057  0.17800  0.85943  Biso   1.000  C
  C1453    1.0000 0.07047  0.16138  0.57047  Biso   1.000  C
  H979     1.0000 0.06500  0.14370  0.56500  Biso   1.000  H
  C1454    1.0000 0.08920  0.20980  0.58920  Biso   1.000  C
  C1455    1.0000 0.09944  0.23653  0.59944  Biso   1.000  C
  C1456    1.0000 0.10856  0.25548  0.60856  Biso   1.000  C
  C1457    1.0000 0.12060  0.28034  0.62060  Biso   1.000  C
  C1458    1.0000 0.14057  0.32200  0.64057  Biso   1.000  C
  C1459    1.0000 0.07047  0.66138  0.07047  Biso   1.000  C
  H980     1.0000 0.06500  0.64370  0.06500  Biso   1.000  H
  C1460    1.0000 0.08920  0.70980  0.08920  Biso   1.000  C
  C1461    1.0000 0.09944  0.73653  0.09944  Biso   1.000  C
  C1462    1.0000 0.10856  0.75548  0.10856  Biso   1.000  C
  C1463    1.0000 0.12060  0.78034  0.12060  Biso   1.000  C
  C1464    1.0000 0.14057  0.82200  0.14057  Biso   1.000  C
  C1465    1.0000 0.42953  0.92953  0.16138  Biso   1.000  C
  H981     1.0000 0.43500  0.93500  0.14370  Biso   1.000  H
  C1466    1.0000 0.41080  0.91080  0.20980  Biso   1.000  C
  C1467    1.0000 0.40056  0.90056  0.23653  Biso   1.000  C
  C1468    1.0000 0.39144  0.89144  0.25548  Biso   1.000  C
  C1469    1.0000 0.37940  0.87940  0.28034  Biso   1.000  C
  C1470    1.0000 0.35943  0.85943  0.32200  Biso   1.000  C
  C1471    1.0000 0.42953  0.42953  0.66138  Biso   1.000  C
  H982     1.0000 0.43500  0.43500  0.64370  Biso   1.000  H
  C1472    1.0000 0.41080  0.41080  0.70980  Biso   1.000  C
  C1473    1.0000 0.40056  0.40056  0.73653  Biso   1.000  C
  C1474    1.0000 0.39144  0.39144  0.75548  Biso   1.000  C
  C1475    1.0000 0.37940  0.37940  0.78034  Biso   1.000  C
  C1476    1.0000 0.35943  0.35943  0.82200  Biso   1.000  C
  C1477    1.0000 0.57047  0.92953  0.83862  Biso   1.000  C
  H983     1.0000 0.56500  0.93500  0.85630  Biso   1.000  H
  C1478    1.0000 0.58920  0.91080  0.79020  Biso   1.000  C
  C1479    1.0000 0.59944  0.90056  0.76347  Biso   1.000  C
  C1480    1.0000 0.60856  0.89144  0.74452  Biso   1.000  C
  C1481    1.0000 0.62060  0.87940  0.71966  Biso   1.000  C
  C1482    1.0000 0.64057  0.85943  0.67800  Biso   1.000  C
  C1483    1.0000 0.57047  0.42953  0.33862  Biso   1.000  C
  H984     1.0000 0.56500  0.43500  0.35630  Biso   1.000  H
  C1484    1.0000 0.58920  0.41080  0.29020  Biso   1.000  C
  C1485    1.0000 0.59944  0.40056  0.26347  Biso   1.000  C
  C1486    1.0000 0.60856  0.39144  0.24452  Biso   1.000  C
  C1487    1.0000 0.62060  0.37940  0.21966  Biso   1.000  C
  C1488    1.0000 0.64057  0.35943  0.17800  Biso   1.000  C
  C1489    1.0000 0.07047  0.42953  0.83862  Biso   1.000  C
  H985     1.0000 0.06500  0.43500  0.85630  Biso   1.000  H
  C1490    1.0000 0.08920  0.41080  0.79020  Biso   1.000  C
  C1491    1.0000 0.09944  0.40056  0.76347  Biso   1.000  C
  C1492    1.0000 0.10856  0.39144  0.74452  Biso   1.000  C
  C1493    1.0000 0.12060  0.37940  0.71966  Biso   1.000  C
  C1494    1.0000 0.14057  0.35943  0.67800  Biso   1.000  C
  C1495    1.0000 0.42953  0.07047  0.83862  Biso   1.000  C
  H986     1.0000 0.43500  0.06500  0.85630  Biso   1.000  H
  C1496    1.0000 0.41080  0.08920  0.79020  Biso   1.000  C
  C1497    1.0000 0.40056  0.09944  0.76347  Biso   1.000  C
  C1498    1.0000 0.39144  0.10856  0.74452  Biso   1.000  C
  C1499    1.0000 0.37940  0.12060  0.71966  Biso   1.000  C
  C1500    1.0000 0.35943  0.14057  0.67800  Biso   1.000  C
  C1501    1.0000 0.42953  0.57047  0.33862  Biso   1.000  C
  H987     1.0000 0.43500  0.56500  0.35630  Biso   1.000  H
  C1502    1.0000 0.41080  0.58920  0.29020  Biso   1.000  C
  C1503    1.0000 0.40056  0.59944  0.26347  Biso   1.000  C
  C1504    1.0000 0.39144  0.60856  0.24452  Biso   1.000  C
  C1505    1.0000 0.37940  0.62060  0.21966  Biso   1.000  C
  C1506    1.0000 0.35943  0.64057  0.17800  Biso   1.000  C
  C1507    1.0000 0.57047  0.07047  0.16138  Biso   1.000  C
  H988     1.0000 0.56500  0.06500  0.14370  Biso   1.000  H
  C1508    1.0000 0.58920  0.08920  0.20980  Biso   1.000  C
  C1509    1.0000 0.59944  0.09944  0.23653  Biso   1.000  C
  C1510    1.0000 0.60856  0.10856  0.25548  Biso   1.000  C
  C1511    1.0000 0.62060  0.12060  0.28034  Biso   1.000  C
  C1512    1.0000 0.64057  0.14057  0.32200  Biso   1.000  C
  C1513    1.0000 0.57047  0.57047  0.66138  Biso   1.000  C
  H989     1.0000 0.56500  0.56500  0.64370  Biso   1.000  H
  C1514    1.0000 0.58920  0.58920  0.70980  Biso   1.000  C
  C1515    1.0000 0.59944  0.59944  0.73653  Biso   1.000  C
  C1516    1.0000 0.60856  0.60856  0.75548  Biso   1.000  C
  C1517    1.0000 0.62060  0.62060  0.78034  Biso   1.000  C
  C1518    1.0000 0.64057  0.64057  0.82200  Biso   1.000  C
  C1519    1.0000 0.07047  0.07047  0.66138  Biso   1.000  C
  H990     1.0000 0.06500  0.06500  0.64370  Biso   1.000  H
  C1520    1.0000 0.08920  0.08920  0.70980  Biso   1.000  C
  C1521    1.0000 0.09944  0.09944  0.73653  Biso   1.000  C
  C1522    1.0000 0.10856  0.10856  0.75548  Biso   1.000  C
  C1523    1.0000 0.12060  0.12060  0.78034  Biso   1.000  C
  C1524    1.0000 0.14057  0.14057  0.82200  Biso   1.000  C
  C1525    1.0000 0.42953  0.16138  0.07047  Biso   1.000  C
  H991     1.0000 0.43500  0.14370  0.06500  Biso   1.000  H
  C1526    1.0000 0.41080  0.20980  0.08920  Biso   1.000  C
  C1527    1.0000 0.40056  0.23653  0.09944  Biso   1.000  C
  C1528    1.0000 0.39144  0.25548  0.10856  Biso   1.000  C
  C1529    1.0000 0.37940  0.28034  0.12060  Biso   1.000  C
  C1530    1.0000 0.35943  0.32200  0.14057  Biso   1.000  C
  C1531    1.0000 0.42953  0.66138  0.57047  Biso   1.000  C
  H992     1.0000 0.43500  0.64370  0.56500  Biso   1.000  H
  C1532    1.0000 0.41080  0.70980  0.58920  Biso   1.000  C
  C1533    1.0000 0.40056  0.73653  0.59944  Biso   1.000  C
  C1534    1.0000 0.39144  0.75548  0.60856  Biso   1.000  C
  C1535    1.0000 0.37940  0.78034  0.62060  Biso   1.000  C
  C1536    1.0000 0.35943  0.82200  0.64057  Biso   1.000  C
  C1537    1.0000 0.57047  0.83862  0.07047  Biso   1.000  C
  H993     1.0000 0.56500  0.85630  0.06500  Biso   1.000  H
  C1538    1.0000 0.58920  0.79020  0.08920  Biso   1.000  C
  C1539    1.0000 0.59944  0.76347  0.09944  Biso   1.000  C
  C1540    1.0000 0.60856  0.74452  0.10856  Biso   1.000  C
  C1541    1.0000 0.62060  0.71966  0.12060  Biso   1.000  C
  C1542    1.0000 0.64057  0.67800  0.14057  Biso   1.000  C
  C1543    1.0000 0.57047  0.33862  0.57047  Biso   1.000  C
  H994     1.0000 0.56500  0.35630  0.56500  Biso   1.000  H
  C1544    1.0000 0.58920  0.29020  0.58920  Biso   1.000  C
  C1545    1.0000 0.59944  0.26347  0.59944  Biso   1.000  C
  C1546    1.0000 0.60856  0.24452  0.60856  Biso   1.000  C
  C1547    1.0000 0.62060  0.21966  0.62060  Biso   1.000  C
  C1548    1.0000 0.64057  0.17800  0.64057  Biso   1.000  C
  C1549    1.0000 0.07047  0.33862  0.07047  Biso   1.000  C
  H995     1.0000 0.06500  0.35630  0.06500  Biso   1.000  H
  C1550    1.0000 0.08920  0.29020  0.08920  Biso   1.000  C
  C1551    1.0000 0.09944  0.26347  0.09944  Biso   1.000  C
  C1552    1.0000 0.10856  0.24452  0.10856  Biso   1.000  C
  C1553    1.0000 0.12060  0.21966  0.12060  Biso   1.000  C
  C1554    1.0000 0.14057  0.17800  0.14057  Biso   1.000  C
  C1555    1.0000 0.42953  0.83862  0.92953  Biso   1.000  C
  H996     1.0000 0.43500  0.85630  0.93500  Biso   1.000  H
  C1556    1.0000 0.41080  0.79020  0.91080  Biso   1.000  C
  C1557    1.0000 0.40056  0.76347  0.90056  Biso   1.000  C
  C1558    1.0000 0.39144  0.74452  0.89144  Biso   1.000  C
  C1559    1.0000 0.37940  0.71966  0.87940  Biso   1.000  C
  C1560    1.0000 0.35943  0.67800  0.85943  Biso   1.000  C
  C1561    1.0000 0.42953  0.33862  0.42953  Biso   1.000  C
  H997     1.0000 0.43500  0.35630  0.43500  Biso   1.000  H
  C1562    1.0000 0.41080  0.29020  0.41080  Biso   1.000  C
  C1563    1.0000 0.40056  0.26347  0.40056  Biso   1.000  C
  C1564    1.0000 0.39144  0.24452  0.39144  Biso   1.000  C
  C1565    1.0000 0.37940  0.21966  0.37940  Biso   1.000  C
  C1566    1.0000 0.35943  0.17800  0.35943  Biso   1.000  C
  C1567    1.0000 0.57047  0.16138  0.92953  Biso   1.000  C
  H998     1.0000 0.56500  0.14370  0.93500  Biso   1.000  H
  C1568    1.0000 0.58920  0.20980  0.91080  Biso   1.000  C
  C1569    1.0000 0.59944  0.23653  0.90056  Biso   1.000  C
  C1570    1.0000 0.60856  0.25548  0.89144  Biso   1.000  C
  C1571    1.0000 0.62060  0.28034  0.87940  Biso   1.000  C
  C1572    1.0000 0.64057  0.32200  0.85943  Biso   1.000  C
  C1573    1.0000 0.57047  0.66138  0.42953  Biso   1.000  C
  H999     1.0000 0.56500  0.64370  0.43500  Biso   1.000  H
  C1574    1.0000 0.58920  0.70980  0.41080  Biso   1.000  C
  C1575    1.0000 0.59944  0.73653  0.40056  Biso   1.000  C
  C1576    1.0000 0.60856  0.75548  0.39144  Biso   1.000  C
  C1577    1.0000 0.62060  0.78034  0.37940  Biso   1.000  C
  C1578    1.0000 0.64057  0.82200  0.35943  Biso   1.000  C
  C1579    1.0000 0.07047  0.16138  0.42953  Biso   1.000  C
  H1000    1.0000 0.06500  0.14370  0.43500  Biso   1.000  H
  C1580    1.0000 0.08920  0.20980  0.41080  Biso   1.000  C
  C1581    1.0000 0.09944  0.23653  0.40056  Biso   1.000  C
  C1582    1.0000 0.10856  0.25548  0.39144  Biso   1.000  C
  C1583    1.0000 0.12060  0.28034  0.37940  Biso   1.000  C
  C1584    1.0000 0.14057  0.32200  0.35943  Biso   1.000  C
  C1585    1.0000 0.16138  0.92953  0.57047  Biso   1.000  C
  H1001    1.0000 0.14370  0.93500  0.56500  Biso   1.000  H
  C1586    1.0000 0.20980  0.91080  0.58920  Biso   1.000  C
  C1587    1.0000 0.23653  0.90056  0.59944  Biso   1.000  C
  C1588    1.0000 0.25548  0.89144  0.60856  Biso   1.000  C
  C1589    1.0000 0.28034  0.87940  0.62060  Biso   1.000  C
  C1590    1.0000 0.32200  0.85943  0.64057  Biso   1.000  C
  C1591    1.0000 0.16138  0.42953  0.07047  Biso   1.000  C
  H1002    1.0000 0.14370  0.43500  0.06500  Biso   1.000  H
  C1592    1.0000 0.20980  0.41080  0.08920  Biso   1.000  C
  C1593    1.0000 0.23653  0.40056  0.09944  Biso   1.000  C
  C1594    1.0000 0.25548  0.39144  0.10856  Biso   1.000  C
  C1595    1.0000 0.28034  0.37940  0.12060  Biso   1.000  C
  C1596    1.0000 0.32200  0.35943  0.14057  Biso   1.000  C
  C1597    1.0000 0.66138  0.92953  0.07047  Biso   1.000  C
  H1003    1.0000 0.64370  0.93500  0.06500  Biso   1.000  H
  C1598    1.0000 0.70980  0.91080  0.08920  Biso   1.000  C
  C1599    1.0000 0.73653  0.90056  0.09944  Biso   1.000  C
  C1600    1.0000 0.75548  0.89144  0.10856  Biso   1.000  C
  C1601    1.0000 0.78034  0.87940  0.12060  Biso   1.000  C
  C1602    1.0000 0.82200  0.85943  0.14057  Biso   1.000  C
  C1603    1.0000 0.83862  0.92953  0.42953  Biso   1.000  C
  H1004    1.0000 0.85630  0.93500  0.43500  Biso   1.000  H
  C1604    1.0000 0.79020  0.91080  0.41080  Biso   1.000  C
  C1605    1.0000 0.76347  0.90056  0.40056  Biso   1.000  C
  C1606    1.0000 0.74452  0.89144  0.39144  Biso   1.000  C
  C1607    1.0000 0.71966  0.87940  0.37940  Biso   1.000  C
  C1608    1.0000 0.67800  0.85943  0.35943  Biso   1.000  C
  C1609    1.0000 0.33862  0.92953  0.92953  Biso   1.000  C
  H1005    1.0000 0.35630  0.93500  0.93500  Biso   1.000  H
  C1610    1.0000 0.29020  0.91080  0.91080  Biso   1.000  C
  C1611    1.0000 0.26347  0.90056  0.90056  Biso   1.000  C
  C1612    1.0000 0.24452  0.89144  0.89144  Biso   1.000  C
  C1613    1.0000 0.21966  0.87940  0.87940  Biso   1.000  C
  C1614    1.0000 0.17800  0.85943  0.85943  Biso   1.000  C
  C1615    1.0000 0.33862  0.42953  0.42953  Biso   1.000  C
  H1006    1.0000 0.35630  0.43500  0.43500  Biso   1.000  H
  C1616    1.0000 0.29020  0.41080  0.41080  Biso   1.000  C
  C1617    1.0000 0.26347  0.40056  0.40056  Biso   1.000  C
  C1618    1.0000 0.24452  0.39144  0.39144  Biso   1.000  C
  C1619    1.0000 0.21966  0.37940  0.37940  Biso   1.000  C
  C1620    1.0000 0.17800  0.35943  0.35943  Biso   1.000  C
  C1621    1.0000 0.83862  0.07047  0.57047  Biso   1.000  C
  H1007    1.0000 0.85630  0.06500  0.56500  Biso   1.000  H
  C1622    1.0000 0.79020  0.08920  0.58920  Biso   1.000  C
  C1623    1.0000 0.76347  0.09944  0.59944  Biso   1.000  C
  C1624    1.0000 0.74452  0.10856  0.60856  Biso   1.000  C
  C1625    1.0000 0.71966  0.12060  0.62060  Biso   1.000  C
  C1626    1.0000 0.67800  0.14057  0.64057  Biso   1.000  C
  C1627    1.0000 0.33862  0.07047  0.07047  Biso   1.000  C
  H1008    1.0000 0.35630  0.06500  0.06500  Biso   1.000  H
  C1628    1.0000 0.29020  0.08920  0.08920  Biso   1.000  C
  C1629    1.0000 0.26347  0.09944  0.09944  Biso   1.000  C
  C1630    1.0000 0.24452  0.10856  0.10856  Biso   1.000  C
  C1631    1.0000 0.21966  0.12060  0.12060  Biso   1.000  C
  C1632    1.0000 0.17800  0.14057  0.14057  Biso   1.000  C
  C1633    1.0000 0.16138  0.07047  0.42953  Biso   1.000  C
  H1009    1.0000 0.14370  0.06500  0.43500  Biso   1.000  H
  C1634    1.0000 0.20980  0.08920  0.41080  Biso   1.000  C
  C1635    1.0000 0.23653  0.09944  0.40056  Biso   1.000  C
  C1636    1.0000 0.25548  0.10856  0.39144  Biso   1.000  C
  C1637    1.0000 0.28034  0.12060  0.37940  Biso   1.000  C
  C1638    1.0000 0.32200  0.14057  0.35943  Biso   1.000  C
  C1639    1.0000 0.66138  0.07047  0.92953  Biso   1.000  C
  H1010    1.0000 0.64370  0.06500  0.93500  Biso   1.000  H
  C1640    1.0000 0.70980  0.08920  0.91080  Biso   1.000  C
  C1641    1.0000 0.73653  0.09944  0.90056  Biso   1.000  C
  C1642    1.0000 0.75548  0.10856  0.89144  Biso   1.000  C
  C1643    1.0000 0.78034  0.12060  0.87940  Biso   1.000  C
  C1644    1.0000 0.82200  0.14057  0.85943  Biso   1.000  C
  C1645    1.0000 0.92953  0.42953  0.83862  Biso   1.000  C
  H1011    1.0000 0.93500  0.43500  0.85630  Biso   1.000  H
  C1646    1.0000 0.91080  0.41080  0.79020  Biso   1.000  C
  C1647    1.0000 0.90056  0.40056  0.76347  Biso   1.000  C
  C1648    1.0000 0.89144  0.39144  0.74452  Biso   1.000  C
  C1649    1.0000 0.87940  0.37940  0.71966  Biso   1.000  C
  C1650    1.0000 0.85943  0.35943  0.67800  Biso   1.000  C
  C1651    1.0000 0.92953  0.92953  0.33862  Biso   1.000  C
  H1012    1.0000 0.93500  0.93500  0.35630  Biso   1.000  H
  C1652    1.0000 0.91080  0.91080  0.29020  Biso   1.000  C
  C1653    1.0000 0.90056  0.90056  0.26347  Biso   1.000  C
  C1654    1.0000 0.89144  0.89144  0.24452  Biso   1.000  C
  C1655    1.0000 0.87940  0.87940  0.21966  Biso   1.000  C
  C1656    1.0000 0.85943  0.85943  0.17800  Biso   1.000  C
  C1657    1.0000 0.42953  0.42953  0.33862  Biso   1.000  C
  H1013    1.0000 0.43500  0.43500  0.35630  Biso   1.000  H
  C1658    1.0000 0.41080  0.41080  0.29020  Biso   1.000  C
  C1659    1.0000 0.40056  0.40056  0.26347  Biso   1.000  C
  C1660    1.0000 0.39144  0.39144  0.24452  Biso   1.000  C
  C1661    1.0000 0.37940  0.37940  0.21966  Biso   1.000  C
  C1662    1.0000 0.35943  0.35943  0.17800  Biso   1.000  C
  C1663    1.0000 0.92953  0.57047  0.16138  Biso   1.000  C
  H1014    1.0000 0.93500  0.56500  0.14370  Biso   1.000  H
  C1664    1.0000 0.91080  0.58920  0.20980  Biso   1.000  C
  C1665    1.0000 0.90056  0.59944  0.23653  Biso   1.000  C
  C1666    1.0000 0.89144  0.60856  0.25548  Biso   1.000  C
  C1667    1.0000 0.87940  0.62060  0.28034  Biso   1.000  C
  C1668    1.0000 0.85943  0.64057  0.32200  Biso   1.000  C
  C1669    1.0000 0.92953  0.07047  0.66138  Biso   1.000  C
  H1015    1.0000 0.93500  0.06500  0.64370  Biso   1.000  H
  C1670    1.0000 0.91080  0.08920  0.70980  Biso   1.000  C
  C1671    1.0000 0.90056  0.09944  0.73653  Biso   1.000  C
  C1672    1.0000 0.89144  0.10856  0.75548  Biso   1.000  C
  C1673    1.0000 0.87940  0.12060  0.78034  Biso   1.000  C
  C1674    1.0000 0.85943  0.14057  0.82200  Biso   1.000  C
  C1675    1.0000 0.42953  0.07047  0.16138  Biso   1.000  C
  H1016    1.0000 0.43500  0.06500  0.14370  Biso   1.000  H
  C1676    1.0000 0.41080  0.08920  0.20980  Biso   1.000  C
  C1677    1.0000 0.40056  0.09944  0.23653  Biso   1.000  C
  C1678    1.0000 0.39144  0.10856  0.25548  Biso   1.000  C
  C1679    1.0000 0.37940  0.12060  0.28034  Biso   1.000  C
  C1680    1.0000 0.35943  0.14057  0.32200  Biso   1.000  C
  C1681    1.0000 0.07047  0.42953  0.16138  Biso   1.000  C
  H1017    1.0000 0.06500  0.43500  0.14370  Biso   1.000  H
  C1682    1.0000 0.08920  0.41080  0.20980  Biso   1.000  C
  C1683    1.0000 0.09944  0.40056  0.23653  Biso   1.000  C
  C1684    1.0000 0.10856  0.39144  0.25548  Biso   1.000  C
  C1685    1.0000 0.12060  0.37940  0.28034  Biso   1.000  C
  C1686    1.0000 0.14057  0.35943  0.32200  Biso   1.000  C
  C1687    1.0000 0.07047  0.92953  0.66138  Biso   1.000  C
  H1018    1.0000 0.06500  0.93500  0.64370  Biso   1.000  H
  C1688    1.0000 0.08920  0.91080  0.70980  Biso   1.000  C
  C1689    1.0000 0.09944  0.90056  0.73653  Biso   1.000  C
  C1690    1.0000 0.10856  0.89144  0.75548  Biso   1.000  C
  C1691    1.0000 0.12060  0.87940  0.78034  Biso   1.000  C
  C1692    1.0000 0.14057  0.85943  0.82200  Biso   1.000  C
  C1693    1.0000 0.07047  0.57047  0.83862  Biso   1.000  C
  H1019    1.0000 0.06500  0.56500  0.85630  Biso   1.000  H
  C1694    1.0000 0.08920  0.58920  0.79020  Biso   1.000  C
  C1695    1.0000 0.09944  0.59944  0.76347  Biso   1.000  C
  C1696    1.0000 0.10856  0.60856  0.74452  Biso   1.000  C
  C1697    1.0000 0.12060  0.62060  0.71966  Biso   1.000  C
  C1698    1.0000 0.14057  0.64057  0.67800  Biso   1.000  C
  C1699    1.0000 0.07047  0.07047  0.33862  Biso   1.000  C
  H1020    1.0000 0.06500  0.06500  0.35630  Biso   1.000  H
  C1700    1.0000 0.08920  0.08920  0.29020  Biso   1.000  C
  C1701    1.0000 0.09944  0.09944  0.26347  Biso   1.000  C
  C1702    1.0000 0.10856  0.10856  0.24452  Biso   1.000  C
  C1703    1.0000 0.12060  0.12060  0.21966  Biso   1.000  C
  C1704    1.0000 0.14057  0.14057  0.17800  Biso   1.000  C
  C1705    1.0000 0.83862  0.57047  0.07047  Biso   1.000  C
  H1021    1.0000 0.85630  0.56500  0.06500  Biso   1.000  H
  C1706    1.0000 0.79020  0.58920  0.08920  Biso   1.000  C
  C1707    1.0000 0.76347  0.59944  0.09944  Biso   1.000  C
  C1708    1.0000 0.74452  0.60856  0.10856  Biso   1.000  C
  C1709    1.0000 0.71966  0.62060  0.12060  Biso   1.000  C
  C1710    1.0000 0.67800  0.64057  0.14057  Biso   1.000  C
  C1711    1.0000 0.33862  0.57047  0.57047  Biso   1.000  C
  H1022    1.0000 0.35630  0.56500  0.56500  Biso   1.000  H
  C1712    1.0000 0.29020  0.58920  0.58920  Biso   1.000  C
  C1713    1.0000 0.26347  0.59944  0.59944  Biso   1.000  C
  C1714    1.0000 0.24452  0.60856  0.60856  Biso   1.000  C
  C1715    1.0000 0.21966  0.62060  0.62060  Biso   1.000  C
  C1716    1.0000 0.17800  0.64057  0.64057  Biso   1.000  C
  C1717    1.0000 0.66138  0.42953  0.57047  Biso   1.000  C
  H1023    1.0000 0.64370  0.43500  0.56500  Biso   1.000  H
  C1718    1.0000 0.70980  0.41080  0.58920  Biso   1.000  C
  C1719    1.0000 0.73653  0.40056  0.59944  Biso   1.000  C
  C1720    1.0000 0.75548  0.39144  0.60856  Biso   1.000  C
  C1721    1.0000 0.78034  0.37940  0.62060  Biso   1.000  C
  C1722    1.0000 0.82200  0.35943  0.64057  Biso   1.000  C
  C1723    1.0000 0.16138  0.57047  0.92953  Biso   1.000  C
  H1024    1.0000 0.14370  0.56500  0.93500  Biso   1.000  H
  C1724    1.0000 0.20980  0.58920  0.91080  Biso   1.000  C
  C1725    1.0000 0.23653  0.59944  0.90056  Biso   1.000  C
  C1726    1.0000 0.25548  0.60856  0.89144  Biso   1.000  C
  C1727    1.0000 0.28034  0.62060  0.87940  Biso   1.000  C
  C1728    1.0000 0.32200  0.64057  0.85943  Biso   1.000  C
  C1729    1.0000 0.66138  0.57047  0.42953  Biso   1.000  C
  H1025    1.0000 0.64370  0.56500  0.43500  Biso   1.000  H
  C1730    1.0000 0.70980  0.58920  0.41080  Biso   1.000  C
  C1731    1.0000 0.73653  0.59944  0.40056  Biso   1.000  C
  C1732    1.0000 0.75548  0.60856  0.39144  Biso   1.000  C
  C1733    1.0000 0.78034  0.62060  0.37940  Biso   1.000  C
  C1734    1.0000 0.82200  0.64057  0.35943  Biso   1.000  C
  C1735    1.0000 0.83862  0.42953  0.92953  Biso   1.000  C
  H1026    1.0000 0.85630  0.43500  0.93500  Biso   1.000  H
  C1736    1.0000 0.79020  0.41080  0.91080  Biso   1.000  C
  C1737    1.0000 0.76347  0.40056  0.90056  Biso   1.000  C
  C1738    1.0000 0.74452  0.39144  0.89144  Biso   1.000  C
  C1739    1.0000 0.71966  0.37940  0.87940  Biso   1.000  C
  C1740    1.0000 0.67800  0.35943  0.85943  Biso   1.000  C
  C1741    1.0000 0.07047  0.83862  0.57047  Biso   1.000  C
  H1027    1.0000 0.06500  0.85630  0.56500  Biso   1.000  H
  C1742    1.0000 0.08920  0.79020  0.58920  Biso   1.000  C
  C1743    1.0000 0.09944  0.76347  0.59944  Biso   1.000  C
  C1744    1.0000 0.10856  0.74452  0.60856  Biso   1.000  C
  C1745    1.0000 0.12060  0.71966  0.62060  Biso   1.000  C
  C1746    1.0000 0.14057  0.67800  0.64057  Biso   1.000  C
  C1747    1.0000 0.07047  0.66138  0.92953  Biso   1.000  C
  H1028    1.0000 0.06500  0.64370  0.93500  Biso   1.000  H
  C1748    1.0000 0.08920  0.70980  0.91080  Biso   1.000  C
  C1749    1.0000 0.09944  0.73653  0.90056  Biso   1.000  C
  C1750    1.0000 0.10856  0.75548  0.89144  Biso   1.000  C
  C1751    1.0000 0.12060  0.78034  0.87940  Biso   1.000  C
  C1752    1.0000 0.14057  0.82200  0.85943  Biso   1.000  C
  C1753    1.0000 0.92953  0.16138  0.57047  Biso   1.000  C
  H1029    1.0000 0.93500  0.14370  0.56500  Biso   1.000  H
  C1754    1.0000 0.91080  0.20980  0.58920  Biso   1.000  C
  C1755    1.0000 0.90056  0.23653  0.59944  Biso   1.000  C
  C1756    1.0000 0.89144  0.25548  0.60856  Biso   1.000  C
  C1757    1.0000 0.87940  0.28034  0.62060  Biso   1.000  C
  C1758    1.0000 0.85943  0.32200  0.64057  Biso   1.000  C
  C1759    1.0000 0.92953  0.66138  0.07047  Biso   1.000  C
  H1030    1.0000 0.93500  0.64370  0.06500  Biso   1.000  H
  C1760    1.0000 0.91080  0.70980  0.08920  Biso   1.000  C
  C1761    1.0000 0.90056  0.73653  0.09944  Biso   1.000  C
  C1762    1.0000 0.89144  0.75548  0.10856  Biso   1.000  C
  C1763    1.0000 0.87940  0.78034  0.12060  Biso   1.000  C
  C1764    1.0000 0.85943  0.82200  0.14057  Biso   1.000  C
  C1765    1.0000 0.92953  0.83862  0.42953  Biso   1.000  C
  H1031    1.0000 0.93500  0.85630  0.43500  Biso   1.000  H
  C1766    1.0000 0.91080  0.79020  0.41080  Biso   1.000  C
  C1767    1.0000 0.90056  0.76347  0.40056  Biso   1.000  C
  C1768    1.0000 0.89144  0.74452  0.39144  Biso   1.000  C
  C1769    1.0000 0.87940  0.71966  0.37940  Biso   1.000  C
  C1770    1.0000 0.85943  0.67800  0.35943  Biso   1.000  C
  C1771    1.0000 0.92953  0.33862  0.92953  Biso   1.000  C
  H1032    1.0000 0.93500  0.35630  0.93500  Biso   1.000  H
  C1772    1.0000 0.91080  0.29020  0.91080  Biso   1.000  C
  C1773    1.0000 0.90056  0.26347  0.90056  Biso   1.000  C
  C1774    1.0000 0.89144  0.24452  0.89144  Biso   1.000  C
  C1775    1.0000 0.87940  0.21966  0.87940  Biso   1.000  C
  C1776    1.0000 0.85943  0.17800  0.85943  Biso   1.000  C
  C1777    1.0000 0.57047  0.07047  0.83862  Biso   1.000  C
  H1033    1.0000 0.56500  0.06500  0.85630  Biso   1.000  H
  C1778    1.0000 0.58920  0.08920  0.79020  Biso   1.000  C
  C1779    1.0000 0.59944  0.09944  0.76347  Biso   1.000  C
  C1780    1.0000 0.60856  0.10856  0.74452  Biso   1.000  C
  C1781    1.0000 0.62060  0.12060  0.71966  Biso   1.000  C
  C1782    1.0000 0.64057  0.14057  0.67800  Biso   1.000  C
  C1783    1.0000 0.57047  0.57047  0.33862  Biso   1.000  C
  H1034    1.0000 0.56500  0.56500  0.35630  Biso   1.000  H
  C1784    1.0000 0.58920  0.58920  0.29020  Biso   1.000  C
  C1785    1.0000 0.59944  0.59944  0.26347  Biso   1.000  C
  C1786    1.0000 0.60856  0.60856  0.24452  Biso   1.000  C
  C1787    1.0000 0.62060  0.62060  0.21966  Biso   1.000  C
  C1788    1.0000 0.64057  0.64057  0.17800  Biso   1.000  C
  C1789    1.0000 0.42953  0.57047  0.66138  Biso   1.000  C
  H1035    1.0000 0.43500  0.56500  0.64370  Biso   1.000  H
  C1790    1.0000 0.41080  0.58920  0.70980  Biso   1.000  C
  C1791    1.0000 0.40056  0.59944  0.73653  Biso   1.000  C
  C1792    1.0000 0.39144  0.60856  0.75548  Biso   1.000  C
  C1793    1.0000 0.37940  0.62060  0.78034  Biso   1.000  C
  C1794    1.0000 0.35943  0.64057  0.82200  Biso   1.000  C
  C1795    1.0000 0.57047  0.92953  0.16138  Biso   1.000  C
  H1036    1.0000 0.56500  0.93500  0.14370  Biso   1.000  H
  C1796    1.0000 0.58920  0.91080  0.20980  Biso   1.000  C
  C1797    1.0000 0.59944  0.90056  0.23653  Biso   1.000  C
  C1798    1.0000 0.60856  0.89144  0.25548  Biso   1.000  C
  C1799    1.0000 0.62060  0.87940  0.28034  Biso   1.000  C
  C1800    1.0000 0.64057  0.85943  0.32200  Biso   1.000  C
  C1801    1.0000 0.57047  0.42953  0.66138  Biso   1.000  C
  H1037    1.0000 0.56500  0.43500  0.64370  Biso   1.000  H
  C1802    1.0000 0.58920  0.41080  0.70980  Biso   1.000  C
  C1803    1.0000 0.59944  0.40056  0.73653  Biso   1.000  C
  C1804    1.0000 0.60856  0.39144  0.75548  Biso   1.000  C
  C1805    1.0000 0.62060  0.37940  0.78034  Biso   1.000  C
  C1806    1.0000 0.64057  0.35943  0.82200  Biso   1.000  C
  C1807    1.0000 0.42953  0.92953  0.83862  Biso   1.000  C
  H1038    1.0000 0.43500  0.93500  0.85630  Biso   1.000  H
  C1808    1.0000 0.41080  0.91080  0.79020  Biso   1.000  C
  C1809    1.0000 0.40056  0.90056  0.76347  Biso   1.000  C
  C1810    1.0000 0.39144  0.89144  0.74452  Biso   1.000  C
  C1811    1.0000 0.37940  0.87940  0.71966  Biso   1.000  C
  C1812    1.0000 0.35943  0.85943  0.67800  Biso   1.000  C
  C1813    1.0000 0.57047  0.83862  0.92953  Biso   1.000  C
  H1039    1.0000 0.56500  0.85630  0.93500  Biso   1.000  H
  C1814    1.0000 0.58920  0.79020  0.91080  Biso   1.000  C
  C1815    1.0000 0.59944  0.76347  0.90056  Biso   1.000  C
  C1816    1.0000 0.60856  0.74452  0.89144  Biso   1.000  C
  C1817    1.0000 0.62060  0.71966  0.87940  Biso   1.000  C
  C1818    1.0000 0.64057  0.67800  0.85943  Biso   1.000  C
  C1819    1.0000 0.57047  0.33862  0.42953  Biso   1.000  C
  H1040    1.0000 0.56500  0.35630  0.43500  Biso   1.000  H
  C1820    1.0000 0.58920  0.29020  0.41080  Biso   1.000  C
  C1821    1.0000 0.59944  0.26347  0.40056  Biso   1.000  C
  C1822    1.0000 0.60856  0.24452  0.39144  Biso   1.000  C
  C1823    1.0000 0.62060  0.21966  0.37940  Biso   1.000  C
  C1824    1.0000 0.64057  0.17800  0.35943  Biso   1.000  C
  C1825    1.0000 0.42953  0.16138  0.92953  Biso   1.000  C
  H1041    1.0000 0.43500  0.14370  0.93500  Biso   1.000  H
  C1826    1.0000 0.41080  0.20980  0.91080  Biso   1.000  C
  C1827    1.0000 0.40056  0.23653  0.90056  Biso   1.000  C
  C1828    1.0000 0.39144  0.25548  0.89144  Biso   1.000  C
  C1829    1.0000 0.37940  0.28034  0.87940  Biso   1.000  C
  C1830    1.0000 0.35943  0.32200  0.85943  Biso   1.000  C
  C1831    1.0000 0.57047  0.16138  0.07047  Biso   1.000  C
  H1042    1.0000 0.56500  0.14370  0.06500  Biso   1.000  H
  C1832    1.0000 0.58920  0.20980  0.08920  Biso   1.000  C
  C1833    1.0000 0.59944  0.23653  0.09944  Biso   1.000  C
  C1834    1.0000 0.60856  0.25548  0.10856  Biso   1.000  C
  C1835    1.0000 0.62060  0.28034  0.12060  Biso   1.000  C
  C1836    1.0000 0.64057  0.32200  0.14057  Biso   1.000  C
  C1837    1.0000 0.57047  0.66138  0.57047  Biso   1.000  C
  H1043    1.0000 0.56500  0.64370  0.56500  Biso   1.000  H
  C1838    1.0000 0.58920  0.70980  0.58920  Biso   1.000  C
  C1839    1.0000 0.59944  0.73653  0.59944  Biso   1.000  C
  C1840    1.0000 0.60856  0.75548  0.60856  Biso   1.000  C
  C1841    1.0000 0.62060  0.78034  0.62060  Biso   1.000  C
  C1842    1.0000 0.64057  0.82200  0.64057  Biso   1.000  C
  C1843    1.0000 0.42953  0.33862  0.57047  Biso   1.000  C
  H1044    1.0000 0.43500  0.35630  0.56500  Biso   1.000  H
  C1844    1.0000 0.41080  0.29020  0.58920  Biso   1.000  C
  C1845    1.0000 0.40056  0.26347  0.59944  Biso   1.000  C
  C1846    1.0000 0.39144  0.24452  0.60856  Biso   1.000  C
  C1847    1.0000 0.37940  0.21966  0.62060  Biso   1.000  C
  C1848    1.0000 0.35943  0.17800  0.64057  Biso   1.000  C
  C1849    1.0000 0.33862  0.07047  0.92953  Biso   1.000  C
  H1045    1.0000 0.35630  0.06500  0.93500  Biso   1.000  H
  C1850    1.0000 0.29020  0.08920  0.91080  Biso   1.000  C
  C1851    1.0000 0.26347  0.09944  0.90056  Biso   1.000  C
  C1852    1.0000 0.24452  0.10856  0.89144  Biso   1.000  C
  C1853    1.0000 0.21966  0.12060  0.87940  Biso   1.000  C
  C1854    1.0000 0.17800  0.14057  0.85943  Biso   1.000  C
  C1855    1.0000 0.16138  0.07047  0.57047  Biso   1.000  C
  H1046    1.0000 0.14370  0.06500  0.56500  Biso   1.000  H
  C1856    1.0000 0.20980  0.08920  0.58920  Biso   1.000  C
  C1857    1.0000 0.23653  0.09944  0.59944  Biso   1.000  C
  C1858    1.0000 0.25548  0.10856  0.60856  Biso   1.000  C
  C1859    1.0000 0.28034  0.12060  0.62060  Biso   1.000  C
  C1860    1.0000 0.32200  0.14057  0.64057  Biso   1.000  C
  C1861    1.0000 0.16138  0.92953  0.42953  Biso   1.000  C
  H1047    1.0000 0.14370  0.93500  0.43500  Biso   1.000  H
  C1862    1.0000 0.20980  0.91080  0.41080  Biso   1.000  C
  C1863    1.0000 0.23653  0.90056  0.40056  Biso   1.000  C
  C1864    1.0000 0.25548  0.89144  0.39144  Biso   1.000  C
  C1865    1.0000 0.28034  0.87940  0.37940  Biso   1.000  C
  C1866    1.0000 0.32200  0.85943  0.35943  Biso   1.000  C
  C1867    1.0000 0.66138  0.92953  0.92953  Biso   1.000  C
  H1048    1.0000 0.64370  0.93500  0.93500  Biso   1.000  H
  C1868    1.0000 0.70980  0.91080  0.91080  Biso   1.000  C
  C1869    1.0000 0.73653  0.90056  0.90056  Biso   1.000  C
  C1870    1.0000 0.75548  0.89144  0.89144  Biso   1.000  C
  C1871    1.0000 0.78034  0.87940  0.87940  Biso   1.000  C
  C1872    1.0000 0.82200  0.85943  0.85943  Biso   1.000  C
  C1873    1.0000 0.83862  0.92953  0.57047  Biso   1.000  C
  H1049    1.0000 0.85630  0.93500  0.56500  Biso   1.000  H
  C1874    1.0000 0.79020  0.91080  0.58920  Biso   1.000  C
  C1875    1.0000 0.76347  0.90056  0.59944  Biso   1.000  C
  C1876    1.0000 0.74452  0.89144  0.60856  Biso   1.000  C
  C1877    1.0000 0.71966  0.87940  0.62060  Biso   1.000  C
  C1878    1.0000 0.67800  0.85943  0.64057  Biso   1.000  C
  C1879    1.0000 0.33862  0.92953  0.07047  Biso   1.000  C
  H1050    1.0000 0.35630  0.93500  0.06500  Biso   1.000  H
  C1880    1.0000 0.29020  0.91080  0.08920  Biso   1.000  C
  C1881    1.0000 0.26347  0.90056  0.09944  Biso   1.000  C
  C1882    1.0000 0.24452  0.89144  0.10856  Biso   1.000  C
  C1883    1.0000 0.21966  0.87940  0.12060  Biso   1.000  C
  C1884    1.0000 0.17800  0.85943  0.14057  Biso   1.000  C
  C1885    1.0000 0.07047  0.57047  0.16138  Biso   1.000  C
  H1051    1.0000 0.06500  0.56500  0.14370  Biso   1.000  H
  C1886    1.0000 0.08920  0.58920  0.20980  Biso   1.000  C
  C1887    1.0000 0.09944  0.59944  0.23653  Biso   1.000  C
  C1888    1.0000 0.10856  0.60856  0.25548  Biso   1.000  C
  C1889    1.0000 0.12060  0.62060  0.28034  Biso   1.000  C
  C1890    1.0000 0.14057  0.64057  0.32200  Biso   1.000  C
  C1891    1.0000 0.07047  0.92953  0.33862  Biso   1.000  C
  H1052    1.0000 0.06500  0.93500  0.35630  Biso   1.000  H
  C1892    1.0000 0.08920  0.91080  0.29020  Biso   1.000  C
  C1893    1.0000 0.09944  0.90056  0.26347  Biso   1.000  C
  C1894    1.0000 0.10856  0.89144  0.24452  Biso   1.000  C
  C1895    1.0000 0.12060  0.87940  0.21966  Biso   1.000  C
  C1896    1.0000 0.14057  0.85943  0.17800  Biso   1.000  C
  C1897    1.0000 0.92953  0.57047  0.83862  Biso   1.000  C
  H1053    1.0000 0.93500  0.56500  0.85630  Biso   1.000  H
  C1898    1.0000 0.91080  0.58920  0.79020  Biso   1.000  C
  C1899    1.0000 0.90056  0.59944  0.76347  Biso   1.000  C
  C1900    1.0000 0.89144  0.60856  0.74452  Biso   1.000  C
  C1901    1.0000 0.87940  0.62060  0.71966  Biso   1.000  C
  C1902    1.0000 0.85943  0.64057  0.67800  Biso   1.000  C
  C1903    1.0000 0.92953  0.07047  0.33862  Biso   1.000  C
  H1054    1.0000 0.93500  0.06500  0.35630  Biso   1.000  H
  C1904    1.0000 0.91080  0.08920  0.29020  Biso   1.000  C
  C1905    1.0000 0.90056  0.09944  0.26347  Biso   1.000  C
  C1906    1.0000 0.89144  0.10856  0.24452  Biso   1.000  C
  C1907    1.0000 0.87940  0.12060  0.21966  Biso   1.000  C
  C1908    1.0000 0.85943  0.14057  0.17800  Biso   1.000  C
  C1909    1.0000 0.92953  0.42953  0.16138  Biso   1.000  C
  H1055    1.0000 0.93500  0.43500  0.14370  Biso   1.000  H
  C1910    1.0000 0.91080  0.41080  0.20980  Biso   1.000  C
  C1911    1.0000 0.90056  0.40056  0.23653  Biso   1.000  C
  C1912    1.0000 0.89144  0.39144  0.25548  Biso   1.000  C
  C1913    1.0000 0.87940  0.37940  0.28034  Biso   1.000  C
  C1914    1.0000 0.85943  0.35943  0.32200  Biso   1.000  C
  C1915    1.0000 0.92953  0.92953  0.66138  Biso   1.000  C
  H1056    1.0000 0.93500  0.93500  0.64370  Biso   1.000  H
  C1916    1.0000 0.91080  0.91080  0.70980  Biso   1.000  C
  C1917    1.0000 0.90056  0.90056  0.73653  Biso   1.000  C
  C1918    1.0000 0.89144  0.89144  0.75548  Biso   1.000  C
  C1919    1.0000 0.87940  0.87940  0.78034  Biso   1.000  C
  C1920    1.0000 0.85943  0.85943  0.82200  Biso   1.000  C
  N1       1.0000 0.34700  0.34700  0.84700  Biso   1.000  N
  N2       1.0000 0.65300  0.65300  0.84700  Biso   1.000  N
  N3       1.0000 0.65300  0.15300  0.34700  Biso   1.000  N
  N4       1.0000 0.15300  0.65300  0.34700  Biso   1.000  N
  N5       1.0000 0.65300  0.34700  0.15300  Biso   1.000  N
  N6       1.0000 0.15300  0.84700  0.15300  Biso   1.000  N
  N7       1.0000 0.34700  0.65300  0.15300  Biso   1.000  N
  N8       1.0000 0.84700  0.34700  0.34700  Biso   1.000  N
  N9       1.0000 0.84700  0.84700  0.84700  Biso   1.000  N
  N10      1.0000 0.84700  0.65300  0.65300  Biso   1.000  N
  N11      1.0000 0.84700  0.15300  0.15300  Biso   1.000  N
  N12      1.0000 0.34700  0.15300  0.65300  Biso   1.000  N
  N13      1.0000 0.15300  0.15300  0.84700  Biso   1.000  N
  N14      1.0000 0.15300  0.34700  0.65300  Biso   1.000  N
  N15      1.0000 0.34700  0.84700  0.34700  Biso   1.000  N
  N16      1.0000 0.65300  0.84700  0.65300  Biso   1.000  N
  N17      1.0000 0.34700  0.34700  0.15300  Biso   1.000  N
  N18      1.0000 0.65300  0.65300  0.15300  Biso   1.000  N
  N19      1.0000 0.15300  0.15300  0.15300  Biso   1.000  N
  N20      1.0000 0.34700  0.65300  0.84700  Biso   1.000  N
  N21      1.0000 0.34700  0.15300  0.34700  Biso   1.000  N
  N22      1.0000 0.65300  0.34700  0.84700  Biso   1.000  N
  N23      1.0000 0.15300  0.34700  0.34700  Biso   1.000  N
  N24      1.0000 0.34700  0.84700  0.65300  Biso   1.000  N
  N25      1.0000 0.65300  0.84700  0.34700  Biso   1.000  N
  N26      1.0000 0.65300  0.15300  0.65300  Biso   1.000  N
  N27      1.0000 0.84700  0.34700  0.65300  Biso   1.000  N
  N28      1.0000 0.84700  0.84700  0.15300  Biso   1.000  N
  N29      1.0000 0.84700  0.65300  0.34700  Biso   1.000  N
  N30      1.0000 0.84700  0.15300  0.84700  Biso   1.000  N
  N31      1.0000 0.15300  0.84700  0.84700  Biso   1.000  N
  N32      1.0000 0.15300  0.65300  0.65300  Biso   1.000  N
