data_image0
_cell_length_a       33.964
_cell_length_b       14.5897
_cell_length_c       33.787
_cell_angle_alpha    90
_cell_angle_beta     104.936
_cell_angle_gamma    90

_symmetry_space_group_name_H-M    "P 1"
_symmetry_int_tables_number       1

loop_
  _symmetry_equiv_pos_as_xyz
  'x, y, z'

loop_
  _atom_site_label
  _atom_site_occupancy
  _atom_site_fract_x
  _atom_site_fract_y
  _atom_site_fract_z
  _atom_site_thermal_displace_type
  _atom_site_B_iso_or_equiv
  _atom_site_type_symbol
  C1       1.0000 0.46270  0.60410  0.66890  Biso   1.000  C
  H1       1.0000 0.45710  0.65470  0.65060  Biso   1.000  H
  C2       1.0000 0.49370  0.54510  0.66550  Biso   1.000  C
  H2       1.0000 0.50940  0.55540  0.64640  Biso   1.000  H
  C3       1.0000 0.50030  0.47020  0.69160  Biso   1.000  C
  C4       1.0000 0.47880  0.46290  0.72200  Biso   1.000  C
  H3       1.0000 0.48470  0.41430  0.74130  Biso   1.000  H
  C5       1.0000 0.44920  0.52590  0.72360  Biso   1.000  C
  H4       1.0000 0.43490  0.52100  0.74420  Biso   1.000  H
  C6       1.0000 0.66930  0.34770  0.61510  Biso   1.000  C
  H5       1.0000 0.69630  0.32400  0.62210  Biso   1.000  H
  C7       1.0000 0.64540  0.33360  0.63990  Biso   1.000  C
  H6       1.0000 0.65490  0.29540  0.66320  Biso   1.000  H
  C8       1.0000 0.60830  0.37140  0.63330  Biso   1.000  C
  C9       1.0000 0.59370  0.41700  0.59700  Biso   1.000  C
  H7       1.0000 0.56690  0.44130  0.59090  Biso   1.000  H
  C10      1.0000 0.61620  0.42800  0.56920  Biso   1.000  C
  H8       1.0000 0.60510  0.45770  0.54370  Biso   1.000  H
  C11      1.0000 0.55630  0.09190  0.78690  Biso   1.000  C
  H9       1.0000 0.53640  0.06900  0.79960  Biso   1.000  H
  C12      1.0000 0.54680  0.16440  0.76050  Biso   1.000  C
  H10      1.0000 0.52060  0.19220  0.75510  Biso   1.000  H
  C13      1.0000 0.57630  0.19730  0.74150  Biso   1.000  C
  C14      1.0000 0.61540  0.15660  0.75130  Biso   1.000  C
  H11      1.0000 0.63640  0.17820  0.73980  Biso   1.000  H
  C15      1.0000 0.62160  0.08320  0.77870  Biso   1.000  C
  H12      1.0000 0.64770  0.05500  0.78540  Biso   1.000  H
  C16      1.0000 0.53270  0.40440  0.68990  Biso   1.000  C
  C17      1.0000 0.58170  0.35700  0.66190  Biso   1.000  C
  C18      1.0000 0.56780  0.27580  0.71370  Biso   1.000  C
  C19      1.0000 0.72520  0.59980  0.57110  Biso   1.000  C
  H13      1.0000 0.73870  0.56570  0.59460  Biso   1.000  H
  C20      1.0000 0.73230  0.69090  0.57160  Biso   1.000  C
  H14      1.0000 0.75100  0.72000  0.59390  Biso   1.000  H
  C21      1.0000 0.71050  0.74030  0.53700  Biso   1.000  C
  C22      1.0000 0.68430  0.69450  0.50520  Biso   1.000  C
  H15      1.0000 0.66840  0.72640  0.48200  Biso   1.000  H
  C23      1.0000 0.68220  0.60090  0.50820  Biso   1.000  C
  H16      1.0000 0.66600  0.56830  0.48540  Biso   1.000  H
  C24      1.0000 0.82030  0.15070  0.61660  Biso   1.000  C
  H17      1.0000 0.82310  0.21540  0.61540  Biso   1.000  H
  C25      1.0000 0.82040  0.97570  0.11340  Biso   1.000  C
  H18      1.0000 0.82420  0.91140  0.11200  Biso   1.000  H
  C26      1.0000 0.78930  0.10970  0.58740  Biso   1.000  C
  H19      1.0000 0.77080  0.14500  0.56720  Biso   1.000  H
  C27      1.0000 0.78620  0.01650  0.58860  Biso   1.000  C
  C28      1.0000 0.81230  0.96720  0.61860  Biso   1.000  C
  H20      1.0000 0.81040  0.90240  0.62000  Biso   1.000  H
  C29      1.0000 0.84120  0.01500  0.64640  Biso   1.000  C
  H21      1.0000 0.85920  0.98100  0.66750  Biso   1.000  H
  C30      1.0000 0.63910  0.02570  0.39440  Biso   1.000  C
  H22      1.0000 0.62500  0.99230  0.37080  Biso   1.000  H
  C31      1.0000 0.65580  0.97750  0.42890  Biso   1.000  C
  H23      1.0000 0.65160  0.91330  0.43000  Biso   1.000  H
  C32      1.0000 0.67950  0.02410  0.46290  Biso   1.000  C
  C33      1.0000 0.68280  0.11690  0.46030  Biso   1.000  C
  H24      1.0000 0.69840  0.15070  0.48300  Biso   1.000  H
  C34      1.0000 0.66290  0.16260  0.42390  Biso   1.000  C
  H25      1.0000 0.66510  0.22740  0.42230  Biso   1.000  H
  C35      1.0000 0.71660  0.84270  0.53450  Biso   1.000  C
  C36      1.0000 0.75370  0.96970  0.55760  Biso   1.000  C
  C37      1.0000 0.70270  0.97250  0.49940  Biso   1.000  C
  C38      1.0000 0.56380  0.04590  0.28600  Biso   1.000  C
  H26      1.0000 0.54440  0.07080  0.29880  Biso   1.000  H
  C39      1.0000 0.55250  0.97420  0.25850  Biso   1.000  C
  H27      1.0000 0.52540  0.95150  0.25190  Biso   1.000  H
  C40      1.0000 0.58100  0.93630  0.24080  Biso   1.000  C
  C41      1.0000 0.61910  0.97300  0.24890  Biso   1.000  C
  H28      1.0000 0.63820  0.95070  0.23510  Biso   1.000  H
  C42      1.0000 0.62970  0.04300  0.27740  Biso   1.000  C
  H29      1.0000 0.65710  0.06450  0.28460  Biso   1.000  H
  C43      1.0000 0.46390  0.52340  0.17180  Biso   1.000  C
  H30      1.0000 0.46070  0.46840  0.15630  Biso   1.000  H
  C44      1.0000 0.49570  0.58300  0.17120  Biso   1.000  C
  H31      1.0000 0.51390  0.56780  0.15500  Biso   1.000  H
  C45      1.0000 0.50150  0.66220  0.19300  Biso   1.000  C
  C46      1.0000 0.47510  0.68140  0.21730  Biso   1.000  C
  H32      1.0000 0.47790  0.73540  0.23350  Biso   1.000  H
  C47      1.0000 0.44460  0.61810  0.21670  Biso   1.000  C
  H33      1.0000 0.42680  0.62890  0.23390  Biso   1.000  H
  C48      1.0000 0.66930  0.77960  0.10950  Biso   1.000  C
  H34      1.0000 0.69490  0.80920  0.11330  Biso   1.000  H
  C49      1.0000 0.64660  0.79300  0.13880  Biso   1.000  C
  H35      1.0000 0.65800  0.82640  0.16320  Biso   1.000  H
  C50      1.0000 0.60870  0.75820  0.13200  Biso   1.000  C
  C51      1.0000 0.59700  0.69660  0.10070  Biso   1.000  C
  H36      1.0000 0.57360  0.65910  0.09780  Biso   1.000  H
  C52      1.0000 0.62150  0.69150  0.07300  Biso   1.000  C
  H37      1.0000 0.61150  0.65770  0.04850  Biso   1.000  H
  C53      1.0000 0.57150  0.85560  0.21220  Biso   1.000  C
  C54      1.0000 0.53430  0.72980  0.19000  Biso   1.000  C
  C55      1.0000 0.58340  0.77440  0.16130  Biso   1.000  C
  C56      1.0000 0.67650  0.52610  0.00430  Biso   1.000  C
  H38      1.0000 0.65760  0.55620  0.98250  Biso   1.000  H
  C57      1.0000 0.68140  0.43080  0.00390  Biso   1.000  C
  H39      1.0000 0.66520  0.39660  0.98170  Biso   1.000  H
  C58      1.0000 0.70850  0.38590  0.03410  Biso   1.000  C
  C59      1.0000 0.73100  0.43840  0.06620  Biso   1.000  C
  H40      1.0000 0.74980  0.40940  0.08840  Biso   1.000  H
  C60      1.0000 0.72630  0.53370  0.06660  Biso   1.000  C
  H41      1.0000 0.74240  0.56940  0.08830  Biso   1.000  H
  C61      1.0000 0.65860  0.96930  0.92130  Biso   1.000  C
  H42      1.0000 0.66020  0.90440  0.91970  Biso   1.000  H
  C62      1.0000 0.67850  0.01000  0.95730  Biso   1.000  C
  H43      1.0000 0.69290  0.97440  0.97990  Biso   1.000  H
  C63      1.0000 0.67700  0.10430  0.95990  Biso   1.000  C
  C64      1.0000 0.65430  0.15350  0.92630  Biso   1.000  C
  H44      1.0000 0.65220  0.21840  0.92730  Biso   1.000  H
  C65      1.0000 0.63450  0.10440  0.89110  Biso   1.000  C
  H45      1.0000 0.61860  0.13720  0.86820  Biso   1.000  H
  C66      1.0000 0.83850  0.11520  0.14650  Biso   1.000  C
  H46      1.0000 0.85470  0.14860  0.16900  Biso   1.000  H
  C67      1.0000 0.80910  0.16040  0.11800  Biso   1.000  C
  H47      1.0000 0.80620  0.22480  0.12030  Biso   1.000  H
  C68      1.0000 0.78360  0.11390  0.08580  Biso   1.000  C
  C69      1.0000 0.78990  0.01720  0.08450  Biso   1.000  C
  H48      1.0000 0.77280  0.98150  0.06350  Biso   1.000  H
  C70      1.0000 0.71450  0.28590  0.03170  Biso   1.000  C
  C71      1.0000 0.70020  0.15350  0.99660  Biso   1.000  C
  C72      1.0000 0.75030  0.15820  0.05490  Biso   1.000  C
  N1       1.0000 0.44020  0.59620  0.69540  Biso   1.000  N
  N2       1.0000 0.65590  0.39540  0.57970  Biso   1.000  N
  N3       1.0000 0.59470  0.05100  0.79530  Biso   1.000  N
  N4       1.0000 0.55190  0.41620  0.66050  Biso   1.000  N
  N5       1.0000 0.59130  0.28440  0.68680  Biso   1.000  N
  N6       1.0000 0.53840  0.33420  0.71700  Biso   1.000  N
  N7       1.0000 0.70090  0.55370  0.54050  Biso   1.000  N
  N8       1.0000 0.84630  0.10590  0.64630  Biso   1.000  N
  N9       1.0000 0.64090  0.11540  0.39110  Biso   1.000  N
  N10      1.0000 0.74760  0.87970  0.56310  Biso   1.000  N
  N11      1.0000 0.73150  0.01860  0.52510  Biso   1.000  N
  N12      1.0000 0.69340  0.88410  0.50250  Biso   1.000  N
  N13      1.0000 0.60250  0.08140  0.29510  Biso   1.000  N
  N14      1.0000 0.43870  0.54250  0.19350  Biso   1.000  N
  N15      1.0000 0.65630  0.72980  0.07890  Biso   1.000  N
  N16      1.0000 0.54100  0.80040  0.21680  Biso   1.000  N
  N17      1.0000 0.55360  0.71460  0.16160  Biso   1.000  N
  N18      1.0000 0.59330  0.84580  0.18590  Biso   1.000  N
  N19      1.0000 0.69880  0.57400  0.03600  Biso   1.000  N
  N20      1.0000 0.63710  0.01320  0.88850  Biso   1.000  N
  N21      1.0000 0.84520  0.02460  0.14380  Biso   1.000  N
  N22      1.0000 0.69080  0.24240  0.99900  Biso   1.000  N
  N23      1.0000 0.73030  0.10840  0.02390  Biso   1.000  N
  N24      1.0000 0.74450  0.24770  0.06090  Biso   1.000  N
  Zn1      1.0000 0.38917  0.67375  0.69126  Biso   1.000  Zn
  Br1      1.0000 0.36974  0.64450  0.75224  Biso   1.000  Br
  Br2      1.0000 0.39967  0.81500  0.66260  Biso   1.000  Br
  Zn2      1.0000 0.69360  0.41160  0.54160  Biso   1.000  Zn
  Br3      1.0000 0.75600  0.34400  0.57390  Biso   1.000  Br
  Br4      1.0000 0.65740  0.37280  0.47510  Biso   1.000  Br
  Zn3      1.0000 0.88873  0.95903  0.18888  Biso   1.000  Zn
  Br5      1.0000 0.90267  0.82059  0.15920  Biso   1.000  Br
  Br6      1.0000 0.86721  0.97483  0.24886  Biso   1.000  Br
  Zn4      1.0000 0.62169  0.18587  0.33664  Biso   1.000  Zn
  Br7      1.0000 0.68230  0.24645  0.32522  Biso   1.000  Br
  Br8      1.0000 0.56513  0.27516  0.33795  Biso   1.000  Br
  Zn5      1.0000 0.68714  0.71660  0.03260  Biso   1.000  Zn
  Br9      1.0000 0.74982  0.79060  0.05910  Biso   1.000  Br
  Br10     1.0000 0.64610  0.75040  0.96745  Biso   1.000  Br
  Zn6      1.0000 0.60550  0.94740  0.83600  Biso   1.000  Zn
  Br11     1.0000 0.65280  0.84990  0.81410  Biso   1.000  Br
  Br12     1.0000 0.54630  0.88910  0.84990  Biso   1.000  Br
  Br13     1.0000 0.36610  0.67600  0.74850  Biso   1.000  Br
  Br14     1.0000 0.39920  0.80650  0.65380  Biso   1.000  Br
  Zn7      1.0000 0.70310  0.41300  0.55080  Biso   1.000  Zn
  Br15     1.0000 0.76630  0.36470  0.59320  Biso   1.000  Br
  Br16     1.0000 0.67720  0.36020  0.48490  Biso   1.000  Br
  Zn8      1.0000 0.68030  0.41570  0.52820  Biso   1.000  Zn
  Br17     1.0000 0.74040  0.33030  0.54980  Biso   1.000  Br
  Br18     1.0000 0.63690  0.38610  0.46380  Biso   1.000  Br
  Zn9      1.0000 0.60530  0.18700  0.33830  Biso   1.000  Zn
  Br19     1.0000 0.65530  0.27360  0.31530  Biso   1.000  Br
  Br20     1.0000 0.54170  0.23000  0.35120  Biso   1.000  Br
  Zn10     1.0000 0.70420  0.71140  0.05610  Biso   1.000  Zn
  Br21     1.0000 0.76160  0.76320  0.10530  Biso   1.000  Br
  Br22     1.0000 0.68130  0.77300  0.99000  Biso   1.000  Br
  Zn11     1.0000 0.69780  0.71330  0.04580  Biso   1.000  Zn
  Br23     1.0000 0.76050  0.77400  0.08210  Biso   1.000  Br
  Br24     1.0000 0.66790  0.76050  0.97950  Biso   1.000  Br
  Zn12     1.0000 0.61170  0.93700  0.83780  Biso   1.000  Zn
  Br25     1.0000 0.66770  0.87020  0.82280  Biso   1.000  Br
  Br26     1.0000 0.54750  0.88200  0.83790  Biso   1.000  Br
  C73      1.0000 0.96270  0.10410  0.66890  Biso   1.000  C
  H49      1.0000 0.95710  0.15470  0.65060  Biso   1.000  H
  C74      1.0000 0.99370  0.04510  0.66550  Biso   1.000  C
  H50      1.0000 0.00940  0.05540  0.64640  Biso   1.000  H
  C75      1.0000 0.00030  0.97020  0.69160  Biso   1.000  C
  C76      1.0000 0.97880  0.96290  0.72200  Biso   1.000  C
  H51      1.0000 0.98470  0.91430  0.74130  Biso   1.000  H
  C77      1.0000 0.94920  0.02590  0.72360  Biso   1.000  C
  H52      1.0000 0.93490  0.02100  0.74420  Biso   1.000  H
  C78      1.0000 0.16930  0.84770  0.61510  Biso   1.000  C
  H53      1.0000 0.19630  0.82400  0.62210  Biso   1.000  H
  C79      1.0000 0.14540  0.83360  0.63990  Biso   1.000  C
  H54      1.0000 0.15490  0.79540  0.66320  Biso   1.000  H
  C80      1.0000 0.10830  0.87140  0.63330  Biso   1.000  C
  C81      1.0000 0.09370  0.91700  0.59700  Biso   1.000  C
  H55      1.0000 0.06690  0.94130  0.59090  Biso   1.000  H
  C82      1.0000 0.11620  0.92800  0.56920  Biso   1.000  C
  H56      1.0000 0.10510  0.95770  0.54370  Biso   1.000  H
  C83      1.0000 0.05630  0.59190  0.78690  Biso   1.000  C
  H57      1.0000 0.03640  0.56900  0.79960  Biso   1.000  H
  C84      1.0000 0.04680  0.66440  0.76050  Biso   1.000  C
  H58      1.0000 0.02060  0.69220  0.75510  Biso   1.000  H
  C85      1.0000 0.07630  0.69730  0.74150  Biso   1.000  C
  C86      1.0000 0.11540  0.65660  0.75130  Biso   1.000  C
  H59      1.0000 0.13640  0.67820  0.73980  Biso   1.000  H
  C87      1.0000 0.12160  0.58320  0.77870  Biso   1.000  C
  H60      1.0000 0.14770  0.55500  0.78540  Biso   1.000  H
  C88      1.0000 0.03270  0.90440  0.68990  Biso   1.000  C
  C89      1.0000 0.08170  0.85700  0.66190  Biso   1.000  C
  C90      1.0000 0.06780  0.77580  0.71370  Biso   1.000  C
  C91      1.0000 0.22520  0.09980  0.57110  Biso   1.000  C
  H61      1.0000 0.23870  0.06570  0.59460  Biso   1.000  H
  C92      1.0000 0.23230  0.19090  0.57160  Biso   1.000  C
  H62      1.0000 0.25100  0.22000  0.59390  Biso   1.000  H
  C93      1.0000 0.21050  0.24030  0.53700  Biso   1.000  C
  C94      1.0000 0.18430  0.19450  0.50520  Biso   1.000  C
  H63      1.0000 0.16840  0.22640  0.48200  Biso   1.000  H
  C95      1.0000 0.18220  0.10090  0.50820  Biso   1.000  C
  H64      1.0000 0.16600  0.06830  0.48540  Biso   1.000  H
  C96      1.0000 0.32030  0.65070  0.61660  Biso   1.000  C
  H65      1.0000 0.32310  0.71540  0.61540  Biso   1.000  H
  C97      1.0000 0.32040  0.47570  0.11340  Biso   1.000  C
  H66      1.0000 0.32420  0.41140  0.11200  Biso   1.000  H
  C98      1.0000 0.28930  0.60970  0.58740  Biso   1.000  C
  H67      1.0000 0.27080  0.64500  0.56720  Biso   1.000  H
  C99      1.0000 0.28620  0.51650  0.58860  Biso   1.000  C
  C100     1.0000 0.31230  0.46720  0.61860  Biso   1.000  C
  H68      1.0000 0.31040  0.40240  0.62000  Biso   1.000  H
  C101     1.0000 0.34120  0.51500  0.64640  Biso   1.000  C
  H69      1.0000 0.35920  0.48100  0.66750  Biso   1.000  H
  C102     1.0000 0.13910  0.52570  0.39440  Biso   1.000  C
  H70      1.0000 0.12500  0.49230  0.37080  Biso   1.000  H
  C103     1.0000 0.15580  0.47750  0.42890  Biso   1.000  C
  H71      1.0000 0.15160  0.41330  0.43000  Biso   1.000  H
  C104     1.0000 0.17950  0.52410  0.46290  Biso   1.000  C
  C105     1.0000 0.18280  0.61690  0.46030  Biso   1.000  C
  H72      1.0000 0.19840  0.65070  0.48300  Biso   1.000  H
  C106     1.0000 0.16290  0.66260  0.42390  Biso   1.000  C
  H73      1.0000 0.16510  0.72740  0.42230  Biso   1.000  H
  C107     1.0000 0.21660  0.34270  0.53450  Biso   1.000  C
  C108     1.0000 0.25370  0.46970  0.55760  Biso   1.000  C
  C109     1.0000 0.20270  0.47250  0.49940  Biso   1.000  C
  C110     1.0000 0.06380  0.54590  0.28600  Biso   1.000  C
  H74      1.0000 0.04440  0.57080  0.29880  Biso   1.000  H
  C111     1.0000 0.05250  0.47420  0.25850  Biso   1.000  C
  H75      1.0000 0.02540  0.45150  0.25190  Biso   1.000  H
  C112     1.0000 0.08100  0.43630  0.24080  Biso   1.000  C
  C113     1.0000 0.11910  0.47300  0.24890  Biso   1.000  C
  H76      1.0000 0.13820  0.45070  0.23510  Biso   1.000  H
  C114     1.0000 0.12970  0.54300  0.27740  Biso   1.000  C
  H77      1.0000 0.15710  0.56450  0.28460  Biso   1.000  H
  C115     1.0000 0.96390  0.02340  0.17180  Biso   1.000  C
  H78      1.0000 0.96070  0.96840  0.15630  Biso   1.000  H
  C116     1.0000 0.99570  0.08300  0.17120  Biso   1.000  C
  H79      1.0000 0.01390  0.06780  0.15500  Biso   1.000  H
  C117     1.0000 0.00150  0.16220  0.19300  Biso   1.000  C
  C118     1.0000 0.97510  0.18140  0.21730  Biso   1.000  C
  H80      1.0000 0.97790  0.23540  0.23350  Biso   1.000  H
  C119     1.0000 0.94460  0.11810  0.21670  Biso   1.000  C
  H81      1.0000 0.92680  0.12890  0.23390  Biso   1.000  H
  C120     1.0000 0.16930  0.27960  0.10950  Biso   1.000  C
  H82      1.0000 0.19490  0.30920  0.11330  Biso   1.000  H
  C121     1.0000 0.14660  0.29300  0.13880  Biso   1.000  C
  H83      1.0000 0.15800  0.32640  0.16320  Biso   1.000  H
  C122     1.0000 0.10870  0.25820  0.13200  Biso   1.000  C
  C123     1.0000 0.09700  0.19660  0.10070  Biso   1.000  C
  H84      1.0000 0.07360  0.15910  0.09780  Biso   1.000  H
  C124     1.0000 0.12150  0.19150  0.07300  Biso   1.000  C
  H85      1.0000 0.11150  0.15770  0.04850  Biso   1.000  H
  C125     1.0000 0.07150  0.35560  0.21220  Biso   1.000  C
  C126     1.0000 0.03430  0.22980  0.19000  Biso   1.000  C
  C127     1.0000 0.08340  0.27440  0.16130  Biso   1.000  C
  C128     1.0000 0.17650  0.02610  0.00430  Biso   1.000  C
  H86      1.0000 0.15760  0.05620  0.98250  Biso   1.000  H
  C129     1.0000 0.18140  0.93080  0.00390  Biso   1.000  C
  H87      1.0000 0.16520  0.89660  0.98170  Biso   1.000  H
  C130     1.0000 0.20850  0.88590  0.03410  Biso   1.000  C
  C131     1.0000 0.23100  0.93840  0.06620  Biso   1.000  C
  H88      1.0000 0.24980  0.90940  0.08840  Biso   1.000  H
  C132     1.0000 0.22630  0.03370  0.06660  Biso   1.000  C
  H89      1.0000 0.24240  0.06940  0.08830  Biso   1.000  H
  C133     1.0000 0.15860  0.46930  0.92130  Biso   1.000  C
  H90      1.0000 0.16020  0.40440  0.91970  Biso   1.000  H
  C134     1.0000 0.17850  0.51000  0.95730  Biso   1.000  C
  H91      1.0000 0.19290  0.47440  0.97990  Biso   1.000  H
  C135     1.0000 0.17700  0.60430  0.95990  Biso   1.000  C
  C136     1.0000 0.15430  0.65350  0.92630  Biso   1.000  C
  H92      1.0000 0.15220  0.71840  0.92730  Biso   1.000  H
  C137     1.0000 0.13450  0.60440  0.89110  Biso   1.000  C
  H93      1.0000 0.11860  0.63720  0.86820  Biso   1.000  H
  C138     1.0000 0.33850  0.61520  0.14650  Biso   1.000  C
  H94      1.0000 0.35470  0.64860  0.16900  Biso   1.000  H
  C139     1.0000 0.30910  0.66040  0.11800  Biso   1.000  C
  H95      1.0000 0.30620  0.72480  0.12030  Biso   1.000  H
  C140     1.0000 0.28360  0.61390  0.08580  Biso   1.000  C
  C141     1.0000 0.28990  0.51720  0.08450  Biso   1.000  C
  H96      1.0000 0.27280  0.48150  0.06350  Biso   1.000  H
  C142     1.0000 0.21450  0.78590  0.03170  Biso   1.000  C
  C143     1.0000 0.20020  0.65350  0.99660  Biso   1.000  C
  C144     1.0000 0.25030  0.65820  0.05490  Biso   1.000  C
  N25      1.0000 0.94020  0.09620  0.69540  Biso   1.000  N
  N26      1.0000 0.15590  0.89540  0.57970  Biso   1.000  N
  N27      1.0000 0.09470  0.55100  0.79530  Biso   1.000  N
  N28      1.0000 0.05190  0.91620  0.66050  Biso   1.000  N
  N29      1.0000 0.09130  0.78440  0.68680  Biso   1.000  N
  N30      1.0000 0.03840  0.83420  0.71700  Biso   1.000  N
  N31      1.0000 0.20090  0.05370  0.54050  Biso   1.000  N
  N32      1.0000 0.34630  0.60590  0.64630  Biso   1.000  N
  N33      1.0000 0.14090  0.61540  0.39110  Biso   1.000  N
  N34      1.0000 0.24760  0.37970  0.56310  Biso   1.000  N
  N35      1.0000 0.23150  0.51860  0.52510  Biso   1.000  N
  N36      1.0000 0.19340  0.38410  0.50250  Biso   1.000  N
  N37      1.0000 0.10250  0.58140  0.29510  Biso   1.000  N
  N38      1.0000 0.93870  0.04250  0.19350  Biso   1.000  N
  N39      1.0000 0.15630  0.22980  0.07890  Biso   1.000  N
  N40      1.0000 0.04100  0.30040  0.21680  Biso   1.000  N
  N41      1.0000 0.05360  0.21460  0.16160  Biso   1.000  N
  N42      1.0000 0.09330  0.34580  0.18590  Biso   1.000  N
  N43      1.0000 0.19880  0.07400  0.03600  Biso   1.000  N
  N44      1.0000 0.13710  0.51320  0.88850  Biso   1.000  N
  N45      1.0000 0.34520  0.52460  0.14380  Biso   1.000  N
  N46      1.0000 0.19080  0.74240  0.99900  Biso   1.000  N
  N47      1.0000 0.23030  0.60840  0.02390  Biso   1.000  N
  N48      1.0000 0.24450  0.74770  0.06090  Biso   1.000  N
  Zn13     1.0000 0.88917  0.17375  0.69126  Biso   1.000  Zn
  Br27     1.0000 0.86974  0.14450  0.75224  Biso   1.000  Br
  Br28     1.0000 0.89967  0.31500  0.66260  Biso   1.000  Br
  Zn14     1.0000 0.19360  0.91160  0.54160  Biso   1.000  Zn
  Br29     1.0000 0.25600  0.84400  0.57390  Biso   1.000  Br
  Br30     1.0000 0.15740  0.87280  0.47510  Biso   1.000  Br
  Zn15     1.0000 0.38873  0.45903  0.18888  Biso   1.000  Zn
  Br31     1.0000 0.40267  0.32059  0.15920  Biso   1.000  Br
  Br32     1.0000 0.36721  0.47483  0.24886  Biso   1.000  Br
  Zn16     1.0000 0.12169  0.68587  0.33664  Biso   1.000  Zn
  Br33     1.0000 0.18230  0.74645  0.32522  Biso   1.000  Br
  Br34     1.0000 0.06513  0.77516  0.33795  Biso   1.000  Br
  Zn17     1.0000 0.18714  0.21660  0.03260  Biso   1.000  Zn
  Br35     1.0000 0.24982  0.29060  0.05910  Biso   1.000  Br
  Br36     1.0000 0.14610  0.25040  0.96745  Biso   1.000  Br
  Zn18     1.0000 0.10550  0.44740  0.83600  Biso   1.000  Zn
  Br37     1.0000 0.15280  0.34990  0.81410  Biso   1.000  Br
  Br38     1.0000 0.04630  0.38910  0.84990  Biso   1.000  Br
  Br39     1.0000 0.86610  0.17600  0.74850  Biso   1.000  Br
  Br40     1.0000 0.89920  0.30650  0.65380  Biso   1.000  Br
  Zn19     1.0000 0.20310  0.91300  0.55080  Biso   1.000  Zn
  Br41     1.0000 0.26630  0.86470  0.59320  Biso   1.000  Br
  Br42     1.0000 0.17720  0.86020  0.48490  Biso   1.000  Br
  Zn20     1.0000 0.18030  0.91570  0.52820  Biso   1.000  Zn
  Br43     1.0000 0.24040  0.83030  0.54980  Biso   1.000  Br
  Br44     1.0000 0.13690  0.88610  0.46380  Biso   1.000  Br
  Zn21     1.0000 0.10530  0.68700  0.33830  Biso   1.000  Zn
  Br45     1.0000 0.15530  0.77360  0.31530  Biso   1.000  Br
  Br46     1.0000 0.04170  0.73000  0.35120  Biso   1.000  Br
  Zn22     1.0000 0.20420  0.21140  0.05610  Biso   1.000  Zn
  Br47     1.0000 0.26160  0.26320  0.10530  Biso   1.000  Br
  Br48     1.0000 0.18130  0.27300  0.99000  Biso   1.000  Br
  Zn23     1.0000 0.19780  0.21330  0.04580  Biso   1.000  Zn
  Br49     1.0000 0.26050  0.27400  0.08210  Biso   1.000  Br
  Br50     1.0000 0.16790  0.26050  0.97950  Biso   1.000  Br
  Zn24     1.0000 0.11170  0.43700  0.83780  Biso   1.000  Zn
  Br51     1.0000 0.16770  0.37020  0.82280  Biso   1.000  Br
  Br52     1.0000 0.04750  0.38200  0.83790  Biso   1.000  Br
  C145     1.0000 0.53730  0.60410  0.33110  Biso   1.000  C
  H97      1.0000 0.54290  0.65470  0.34940  Biso   1.000  H
  C146     1.0000 0.50630  0.54510  0.33450  Biso   1.000  C
  H98      1.0000 0.49060  0.55540  0.35360  Biso   1.000  H
  C147     1.0000 0.49970  0.47020  0.30840  Biso   1.000  C
  C148     1.0000 0.52120  0.46290  0.27800  Biso   1.000  C
  H99      1.0000 0.51530  0.41430  0.25870  Biso   1.000  H
  C149     1.0000 0.55080  0.52590  0.27640  Biso   1.000  C
  H100     1.0000 0.56510  0.52100  0.25580  Biso   1.000  H
  C150     1.0000 0.33070  0.34770  0.38490  Biso   1.000  C
  H101     1.0000 0.30370  0.32400  0.37790  Biso   1.000  H
  C151     1.0000 0.35460  0.33360  0.36010  Biso   1.000  C
  H102     1.0000 0.34510  0.29540  0.33680  Biso   1.000  H
  C152     1.0000 0.39170  0.37140  0.36670  Biso   1.000  C
  C153     1.0000 0.40630  0.41700  0.40300  Biso   1.000  C
  H103     1.0000 0.43310  0.44130  0.40910  Biso   1.000  H
  C154     1.0000 0.38380  0.42800  0.43080  Biso   1.000  C
  H104     1.0000 0.39490  0.45770  0.45630  Biso   1.000  H
  C155     1.0000 0.44370  0.09190  0.21310  Biso   1.000  C
  H105     1.0000 0.46360  0.06900  0.20040  Biso   1.000  H
  C156     1.0000 0.45320  0.16440  0.23950  Biso   1.000  C
  H106     1.0000 0.47940  0.19220  0.24490  Biso   1.000  H
  C157     1.0000 0.42370  0.19730  0.25850  Biso   1.000  C
  C158     1.0000 0.38460  0.15660  0.24870  Biso   1.000  C
  H107     1.0000 0.36360  0.17820  0.26020  Biso   1.000  H
  C159     1.0000 0.37840  0.08320  0.22130  Biso   1.000  C
  H108     1.0000 0.35230  0.05500  0.21460  Biso   1.000  H
  C160     1.0000 0.46730  0.40440  0.31010  Biso   1.000  C
  C161     1.0000 0.41830  0.35700  0.33810  Biso   1.000  C
  C162     1.0000 0.43220  0.27580  0.28630  Biso   1.000  C
  C163     1.0000 0.27480  0.59980  0.42890  Biso   1.000  C
  H109     1.0000 0.26130  0.56570  0.40540  Biso   1.000  H
  C164     1.0000 0.26770  0.69090  0.42840  Biso   1.000  C
  H110     1.0000 0.24900  0.72000  0.40610  Biso   1.000  H
  C165     1.0000 0.28950  0.74030  0.46300  Biso   1.000  C
  C166     1.0000 0.31570  0.69450  0.49480  Biso   1.000  C
  H111     1.0000 0.33160  0.72640  0.51800  Biso   1.000  H
  C167     1.0000 0.31780  0.60090  0.49180  Biso   1.000  C
  H112     1.0000 0.33400  0.56830  0.51460  Biso   1.000  H
  C168     1.0000 0.17970  0.15070  0.38340  Biso   1.000  C
  H113     1.0000 0.17690  0.21540  0.38460  Biso   1.000  H
  C169     1.0000 0.17960  0.97570  0.88660  Biso   1.000  C
  H114     1.0000 0.17580  0.91140  0.88800  Biso   1.000  H
  C170     1.0000 0.21070  0.10970  0.41260  Biso   1.000  C
  H115     1.0000 0.22920  0.14500  0.43280  Biso   1.000  H
  C171     1.0000 0.21380  0.01650  0.41140  Biso   1.000  C
  C172     1.0000 0.18770  0.96720  0.38140  Biso   1.000  C
  H116     1.0000 0.18960  0.90240  0.38000  Biso   1.000  H
  C173     1.0000 0.15880  0.01500  0.35360  Biso   1.000  C
  H117     1.0000 0.14080  0.98100  0.33250  Biso   1.000  H
  C174     1.0000 0.36090  0.02570  0.60560  Biso   1.000  C
  H118     1.0000 0.37500  0.99230  0.62920  Biso   1.000  H
  C175     1.0000 0.34420  0.97750  0.57110  Biso   1.000  C
  H119     1.0000 0.34840  0.91330  0.57000  Biso   1.000  H
  C176     1.0000 0.32050  0.02410  0.53710  Biso   1.000  C
  C177     1.0000 0.31720  0.11690  0.53970  Biso   1.000  C
  H120     1.0000 0.30160  0.15070  0.51700  Biso   1.000  H
  C178     1.0000 0.33710  0.16260  0.57610  Biso   1.000  C
  H121     1.0000 0.33490  0.22740  0.57770  Biso   1.000  H
  C179     1.0000 0.28340  0.84270  0.46550  Biso   1.000  C
  C180     1.0000 0.24630  0.96970  0.44240  Biso   1.000  C
  C181     1.0000 0.29730  0.97250  0.50060  Biso   1.000  C
  C182     1.0000 0.43620  0.04590  0.71400  Biso   1.000  C
  H122     1.0000 0.45560  0.07080  0.70120  Biso   1.000  H
  C183     1.0000 0.44750  0.97420  0.74150  Biso   1.000  C
  H123     1.0000 0.47460  0.95150  0.74810  Biso   1.000  H
  C184     1.0000 0.41900  0.93630  0.75920  Biso   1.000  C
  C185     1.0000 0.38090  0.97300  0.75110  Biso   1.000  C
  H124     1.0000 0.36180  0.95070  0.76490  Biso   1.000  H
  C186     1.0000 0.37030  0.04300  0.72260  Biso   1.000  C
  H125     1.0000 0.34290  0.06450  0.71540  Biso   1.000  H
  C187     1.0000 0.53610  0.52340  0.82820  Biso   1.000  C
  H126     1.0000 0.53930  0.46840  0.84370  Biso   1.000  H
  C188     1.0000 0.50430  0.58300  0.82880  Biso   1.000  C
  H127     1.0000 0.48610  0.56780  0.84500  Biso   1.000  H
  C189     1.0000 0.49850  0.66220  0.80700  Biso   1.000  C
  C190     1.0000 0.52490  0.68140  0.78270  Biso   1.000  C
  H128     1.0000 0.52210  0.73540  0.76650  Biso   1.000  H
  C191     1.0000 0.55540  0.61810  0.78330  Biso   1.000  C
  H129     1.0000 0.57320  0.62890  0.76610  Biso   1.000  H
  C192     1.0000 0.33070  0.77960  0.89050  Biso   1.000  C
  H130     1.0000 0.30510  0.80920  0.88670  Biso   1.000  H
  C193     1.0000 0.35340  0.79300  0.86120  Biso   1.000  C
  H131     1.0000 0.34200  0.82640  0.83680  Biso   1.000  H
  C194     1.0000 0.39130  0.75820  0.86800  Biso   1.000  C
  C195     1.0000 0.40300  0.69660  0.89930  Biso   1.000  C
  H132     1.0000 0.42640  0.65910  0.90220  Biso   1.000  H
  C196     1.0000 0.37850  0.69150  0.92700  Biso   1.000  C
  H133     1.0000 0.38850  0.65770  0.95150  Biso   1.000  H
  C197     1.0000 0.42850  0.85560  0.78780  Biso   1.000  C
  C198     1.0000 0.46570  0.72980  0.81000  Biso   1.000  C
  C199     1.0000 0.41660  0.77440  0.83870  Biso   1.000  C
  C200     1.0000 0.32350  0.52610  0.99570  Biso   1.000  C
  H134     1.0000 0.34240  0.55620  0.01750  Biso   1.000  H
  C201     1.0000 0.31860  0.43080  0.99610  Biso   1.000  C
  H135     1.0000 0.33480  0.39660  0.01830  Biso   1.000  H
  C202     1.0000 0.29150  0.38590  0.96590  Biso   1.000  C
  C203     1.0000 0.26900  0.43840  0.93380  Biso   1.000  C
  H136     1.0000 0.25020  0.40940  0.91160  Biso   1.000  H
  C204     1.0000 0.27370  0.53370  0.93340  Biso   1.000  C
  H137     1.0000 0.25760  0.56940  0.91170  Biso   1.000  H
  C205     1.0000 0.34140  0.96930  0.07870  Biso   1.000  C
  H138     1.0000 0.33980  0.90440  0.08030  Biso   1.000  H
  C206     1.0000 0.32150  0.01000  0.04270  Biso   1.000  C
  H139     1.0000 0.30710  0.97440  0.02010  Biso   1.000  H
  C207     1.0000 0.32300  0.10430  0.04010  Biso   1.000  C
  C208     1.0000 0.34570  0.15350  0.07370  Biso   1.000  C
  H140     1.0000 0.34780  0.21840  0.07270  Biso   1.000  H
  C209     1.0000 0.36550  0.10440  0.10890  Biso   1.000  C
  H141     1.0000 0.38140  0.13720  0.13180  Biso   1.000  H
  C210     1.0000 0.16150  0.11520  0.85350  Biso   1.000  C
  H142     1.0000 0.14530  0.14860  0.83100  Biso   1.000  H
  C211     1.0000 0.19090  0.16040  0.88200  Biso   1.000  C
  H143     1.0000 0.19380  0.22480  0.87970  Biso   1.000  H
  C212     1.0000 0.21640  0.11390  0.91420  Biso   1.000  C
  C213     1.0000 0.21010  0.01720  0.91550  Biso   1.000  C
  H144     1.0000 0.22720  0.98150  0.93650  Biso   1.000  H
  C214     1.0000 0.28550  0.28590  0.96830  Biso   1.000  C
  C215     1.0000 0.29980  0.15350  0.00340  Biso   1.000  C
  C216     1.0000 0.24970  0.15820  0.94510  Biso   1.000  C
  N49      1.0000 0.55980  0.59620  0.30460  Biso   1.000  N
  N50      1.0000 0.34410  0.39540  0.42030  Biso   1.000  N
  N51      1.0000 0.40530  0.05100  0.20470  Biso   1.000  N
  N52      1.0000 0.44810  0.41620  0.33950  Biso   1.000  N
  N53      1.0000 0.40870  0.28440  0.31320  Biso   1.000  N
  N54      1.0000 0.46160  0.33420  0.28300  Biso   1.000  N
  N55      1.0000 0.29910  0.55370  0.45950  Biso   1.000  N
  N56      1.0000 0.15370  0.10590  0.35370  Biso   1.000  N
  N57      1.0000 0.35910  0.11540  0.60890  Biso   1.000  N
  N58      1.0000 0.25240  0.87970  0.43690  Biso   1.000  N
  N59      1.0000 0.26850  0.01860  0.47490  Biso   1.000  N
  N60      1.0000 0.30660  0.88410  0.49750  Biso   1.000  N
  N61      1.0000 0.39750  0.08140  0.70490  Biso   1.000  N
  N62      1.0000 0.56130  0.54250  0.80650  Biso   1.000  N
  N63      1.0000 0.34370  0.72980  0.92110  Biso   1.000  N
  N64      1.0000 0.45900  0.80040  0.78320  Biso   1.000  N
  N65      1.0000 0.44640  0.71460  0.83840  Biso   1.000  N
  N66      1.0000 0.40670  0.84580  0.81410  Biso   1.000  N
  N67      1.0000 0.30120  0.57400  0.96400  Biso   1.000  N
  N68      1.0000 0.36290  0.01320  0.11150  Biso   1.000  N
  N69      1.0000 0.15480  0.02460  0.85620  Biso   1.000  N
  N70      1.0000 0.30920  0.24240  0.00100  Biso   1.000  N
  N71      1.0000 0.26970  0.10840  0.97610  Biso   1.000  N
  N72      1.0000 0.25550  0.24770  0.93910  Biso   1.000  N
  Zn25     1.0000 0.61083  0.67375  0.30874  Biso   1.000  Zn
  Br53     1.0000 0.63026  0.64450  0.24776  Biso   1.000  Br
  Br54     1.0000 0.60033  0.81500  0.33740  Biso   1.000  Br
  Zn26     1.0000 0.30640  0.41160  0.45840  Biso   1.000  Zn
  Br55     1.0000 0.24400  0.34400  0.42610  Biso   1.000  Br
  Br56     1.0000 0.34260  0.37280  0.52490  Biso   1.000  Br
  Zn27     1.0000 0.11127  0.95903  0.81112  Biso   1.000  Zn
  Br57     1.0000 0.09733  0.82059  0.84080  Biso   1.000  Br
  Br58     1.0000 0.13279  0.97483  0.75114  Biso   1.000  Br
  Zn28     1.0000 0.37831  0.18587  0.66336  Biso   1.000  Zn
  Br59     1.0000 0.31770  0.24645  0.67478  Biso   1.000  Br
  Br60     1.0000 0.43487  0.27516  0.66205  Biso   1.000  Br
  Zn29     1.0000 0.31286  0.71660  0.96740  Biso   1.000  Zn
  Br61     1.0000 0.25018  0.79060  0.94090  Biso   1.000  Br
  Br62     1.0000 0.35390  0.75040  0.03255  Biso   1.000  Br
  Zn30     1.0000 0.39450  0.94740  0.16400  Biso   1.000  Zn
  Br63     1.0000 0.34720  0.84990  0.18590  Biso   1.000  Br
  Br64     1.0000 0.45370  0.88910  0.15010  Biso   1.000  Br
  Br65     1.0000 0.63390  0.67600  0.25150  Biso   1.000  Br
  Br66     1.0000 0.60080  0.80650  0.34620  Biso   1.000  Br
  Zn31     1.0000 0.29690  0.41300  0.44920  Biso   1.000  Zn
  Br67     1.0000 0.23370  0.36470  0.40680  Biso   1.000  Br
  Br68     1.0000 0.32280  0.36020  0.51510  Biso   1.000  Br
  Zn32     1.0000 0.31970  0.41570  0.47180  Biso   1.000  Zn
  Br69     1.0000 0.25960  0.33030  0.45020  Biso   1.000  Br
  Br70     1.0000 0.36310  0.38610  0.53620  Biso   1.000  Br
  Zn33     1.0000 0.39470  0.18700  0.66170  Biso   1.000  Zn
  Br71     1.0000 0.34470  0.27360  0.68470  Biso   1.000  Br
  Br72     1.0000 0.45830  0.23000  0.64880  Biso   1.000  Br
  Zn34     1.0000 0.29580  0.71140  0.94390  Biso   1.000  Zn
  Br73     1.0000 0.23840  0.76320  0.89470  Biso   1.000  Br
  Br74     1.0000 0.31870  0.77300  0.01000  Biso   1.000  Br
  Zn35     1.0000 0.30220  0.71330  0.95420  Biso   1.000  Zn
  Br75     1.0000 0.23950  0.77400  0.91790  Biso   1.000  Br
  Br76     1.0000 0.33210  0.76050  0.02050  Biso   1.000  Br
  Zn36     1.0000 0.38830  0.93700  0.16220  Biso   1.000  Zn
  Br77     1.0000 0.33230  0.87020  0.17720  Biso   1.000  Br
  Br78     1.0000 0.45250  0.88200  0.16210  Biso   1.000  Br
  C217     1.0000 0.03730  0.10410  0.33110  Biso   1.000  C
  H145     1.0000 0.04290  0.15470  0.34940  Biso   1.000  H
  C218     1.0000 0.00630  0.04510  0.33450  Biso   1.000  C
  H146     1.0000 0.99060  0.05540  0.35360  Biso   1.000  H
  C219     1.0000 0.99970  0.97020  0.30840  Biso   1.000  C
  C220     1.0000 0.02120  0.96290  0.27800  Biso   1.000  C
  H147     1.0000 0.01530  0.91430  0.25870  Biso   1.000  H
  C221     1.0000 0.05080  0.02590  0.27640  Biso   1.000  C
  H148     1.0000 0.06510  0.02100  0.25580  Biso   1.000  H
  C222     1.0000 0.83070  0.84770  0.38490  Biso   1.000  C
  H149     1.0000 0.80370  0.82400  0.37790  Biso   1.000  H
  C223     1.0000 0.85460  0.83360  0.36010  Biso   1.000  C
  H150     1.0000 0.84510  0.79540  0.33680  Biso   1.000  H
  C224     1.0000 0.89170  0.87140  0.36670  Biso   1.000  C
  C225     1.0000 0.90630  0.91700  0.40300  Biso   1.000  C
  H151     1.0000 0.93310  0.94130  0.40910  Biso   1.000  H
  C226     1.0000 0.88380  0.92800  0.43080  Biso   1.000  C
  H152     1.0000 0.89490  0.95770  0.45630  Biso   1.000  H
  C227     1.0000 0.94370  0.59190  0.21310  Biso   1.000  C
  H153     1.0000 0.96360  0.56900  0.20040  Biso   1.000  H
  C228     1.0000 0.95320  0.66440  0.23950  Biso   1.000  C
  H154     1.0000 0.97940  0.69220  0.24490  Biso   1.000  H
  C229     1.0000 0.92370  0.69730  0.25850  Biso   1.000  C
  C230     1.0000 0.88460  0.65660  0.24870  Biso   1.000  C
  H155     1.0000 0.86360  0.67820  0.26020  Biso   1.000  H
  C231     1.0000 0.87840  0.58320  0.22130  Biso   1.000  C
  H156     1.0000 0.85230  0.55500  0.21460  Biso   1.000  H
  C232     1.0000 0.96730  0.90440  0.31010  Biso   1.000  C
  C233     1.0000 0.91830  0.85700  0.33810  Biso   1.000  C
  C234     1.0000 0.93220  0.77580  0.28630  Biso   1.000  C
  C235     1.0000 0.77480  0.09980  0.42890  Biso   1.000  C
  H157     1.0000 0.76130  0.06570  0.40540  Biso   1.000  H
  C236     1.0000 0.76770  0.19090  0.42840  Biso   1.000  C
  H158     1.0000 0.74900  0.22000  0.40610  Biso   1.000  H
  C237     1.0000 0.78950  0.24030  0.46300  Biso   1.000  C
  C238     1.0000 0.81570  0.19450  0.49480  Biso   1.000  C
  H159     1.0000 0.83160  0.22640  0.51800  Biso   1.000  H
  C239     1.0000 0.81780  0.10090  0.49180  Biso   1.000  C
  H160     1.0000 0.83400  0.06830  0.51460  Biso   1.000  H
  C240     1.0000 0.67970  0.65070  0.38340  Biso   1.000  C
  H161     1.0000 0.67690  0.71540  0.38460  Biso   1.000  H
  C241     1.0000 0.67960  0.47570  0.88660  Biso   1.000  C
  H162     1.0000 0.67580  0.41140  0.88800  Biso   1.000  H
  C242     1.0000 0.71070  0.60970  0.41260  Biso   1.000  C
  H163     1.0000 0.72920  0.64500  0.43280  Biso   1.000  H
  C243     1.0000 0.71380  0.51650  0.41140  Biso   1.000  C
  C244     1.0000 0.68770  0.46720  0.38140  Biso   1.000  C
  H164     1.0000 0.68960  0.40240  0.38000  Biso   1.000  H
  C245     1.0000 0.65880  0.51500  0.35360  Biso   1.000  C
  H165     1.0000 0.64080  0.48100  0.33250  Biso   1.000  H
  C246     1.0000 0.86090  0.52570  0.60560  Biso   1.000  C
  H166     1.0000 0.87500  0.49230  0.62920  Biso   1.000  H
  C247     1.0000 0.84420  0.47750  0.57110  Biso   1.000  C
  H167     1.0000 0.84840  0.41330  0.57000  Biso   1.000  H
  C248     1.0000 0.82050  0.52410  0.53710  Biso   1.000  C
  C249     1.0000 0.81720  0.61690  0.53970  Biso   1.000  C
  H168     1.0000 0.80160  0.65070  0.51700  Biso   1.000  H
  C250     1.0000 0.83710  0.66260  0.57610  Biso   1.000  C
  H169     1.0000 0.83490  0.72740  0.57770  Biso   1.000  H
  C251     1.0000 0.78340  0.34270  0.46550  Biso   1.000  C
  C252     1.0000 0.74630  0.46970  0.44240  Biso   1.000  C
  C253     1.0000 0.79730  0.47250  0.50060  Biso   1.000  C
  C254     1.0000 0.93620  0.54590  0.71400  Biso   1.000  C
  H170     1.0000 0.95560  0.57080  0.70120  Biso   1.000  H
  C255     1.0000 0.94750  0.47420  0.74150  Biso   1.000  C
  H171     1.0000 0.97460  0.45150  0.74810  Biso   1.000  H
  C256     1.0000 0.91900  0.43630  0.75920  Biso   1.000  C
  C257     1.0000 0.88090  0.47300  0.75110  Biso   1.000  C
  H172     1.0000 0.86180  0.45070  0.76490  Biso   1.000  H
  C258     1.0000 0.87030  0.54300  0.72260  Biso   1.000  C
  H173     1.0000 0.84290  0.56450  0.71540  Biso   1.000  H
  C259     1.0000 0.03610  0.02340  0.82820  Biso   1.000  C
  H174     1.0000 0.03930  0.96840  0.84370  Biso   1.000  H
  C260     1.0000 0.00430  0.08300  0.82880  Biso   1.000  C
  H175     1.0000 0.98610  0.06780  0.84500  Biso   1.000  H
  C261     1.0000 0.99850  0.16220  0.80700  Biso   1.000  C
  C262     1.0000 0.02490  0.18140  0.78270  Biso   1.000  C
  H176     1.0000 0.02210  0.23540  0.76650  Biso   1.000  H
  C263     1.0000 0.05540  0.11810  0.78330  Biso   1.000  C
  H177     1.0000 0.07320  0.12890  0.76610  Biso   1.000  H
  C264     1.0000 0.83070  0.27960  0.89050  Biso   1.000  C
  H178     1.0000 0.80510  0.30920  0.88670  Biso   1.000  H
  C265     1.0000 0.85340  0.29300  0.86120  Biso   1.000  C
  H179     1.0000 0.84200  0.32640  0.83680  Biso   1.000  H
  C266     1.0000 0.89130  0.25820  0.86800  Biso   1.000  C
  C267     1.0000 0.90300  0.19660  0.89930  Biso   1.000  C
  H180     1.0000 0.92640  0.15910  0.90220  Biso   1.000  H
  C268     1.0000 0.87850  0.19150  0.92700  Biso   1.000  C
  H181     1.0000 0.88850  0.15770  0.95150  Biso   1.000  H
  C269     1.0000 0.92850  0.35560  0.78780  Biso   1.000  C
  C270     1.0000 0.96570  0.22980  0.81000  Biso   1.000  C
  C271     1.0000 0.91660  0.27440  0.83870  Biso   1.000  C
  C272     1.0000 0.82350  0.02610  0.99570  Biso   1.000  C
  H182     1.0000 0.84240  0.05620  0.01750  Biso   1.000  H
  C273     1.0000 0.81860  0.93080  0.99610  Biso   1.000  C
  H183     1.0000 0.83480  0.89660  0.01830  Biso   1.000  H
  C274     1.0000 0.79150  0.88590  0.96590  Biso   1.000  C
  C275     1.0000 0.76900  0.93840  0.93380  Biso   1.000  C
  H184     1.0000 0.75020  0.90940  0.91160  Biso   1.000  H
  C276     1.0000 0.77370  0.03370  0.93340  Biso   1.000  C
  H185     1.0000 0.75760  0.06940  0.91170  Biso   1.000  H
  C277     1.0000 0.84140  0.46930  0.07870  Biso   1.000  C
  H186     1.0000 0.83980  0.40440  0.08030  Biso   1.000  H
  C278     1.0000 0.82150  0.51000  0.04270  Biso   1.000  C
  H187     1.0000 0.80710  0.47440  0.02010  Biso   1.000  H
  C279     1.0000 0.82300  0.60430  0.04010  Biso   1.000  C
  C280     1.0000 0.84570  0.65350  0.07370  Biso   1.000  C
  H188     1.0000 0.84780  0.71840  0.07270  Biso   1.000  H
  C281     1.0000 0.86550  0.60440  0.10890  Biso   1.000  C
  H189     1.0000 0.88140  0.63720  0.13180  Biso   1.000  H
  C282     1.0000 0.66150  0.61520  0.85350  Biso   1.000  C
  H190     1.0000 0.64530  0.64860  0.83100  Biso   1.000  H
  C283     1.0000 0.69090  0.66040  0.88200  Biso   1.000  C
  H191     1.0000 0.69380  0.72480  0.87970  Biso   1.000  H
  C284     1.0000 0.71640  0.61390  0.91420  Biso   1.000  C
  C285     1.0000 0.71010  0.51720  0.91550  Biso   1.000  C
  H192     1.0000 0.72720  0.48150  0.93650  Biso   1.000  H
  C286     1.0000 0.78550  0.78590  0.96830  Biso   1.000  C
  C287     1.0000 0.79980  0.65350  0.00340  Biso   1.000  C
  C288     1.0000 0.74970  0.65820  0.94510  Biso   1.000  C
  N73      1.0000 0.05980  0.09620  0.30460  Biso   1.000  N
  N74      1.0000 0.84410  0.89540  0.42030  Biso   1.000  N
  N75      1.0000 0.90530  0.55100  0.20470  Biso   1.000  N
  N76      1.0000 0.94810  0.91620  0.33950  Biso   1.000  N
  N77      1.0000 0.90870  0.78440  0.31320  Biso   1.000  N
  N78      1.0000 0.96160  0.83420  0.28300  Biso   1.000  N
  N79      1.0000 0.79910  0.05370  0.45950  Biso   1.000  N
  N80      1.0000 0.65370  0.60590  0.35370  Biso   1.000  N
  N81      1.0000 0.85910  0.61540  0.60890  Biso   1.000  N
  N82      1.0000 0.75240  0.37970  0.43690  Biso   1.000  N
  N83      1.0000 0.76850  0.51860  0.47490  Biso   1.000  N
  N84      1.0000 0.80660  0.38410  0.49750  Biso   1.000  N
  N85      1.0000 0.89750  0.58140  0.70490  Biso   1.000  N
  N86      1.0000 0.06130  0.04250  0.80650  Biso   1.000  N
  N87      1.0000 0.84370  0.22980  0.92110  Biso   1.000  N
  N88      1.0000 0.95900  0.30040  0.78320  Biso   1.000  N
  N89      1.0000 0.94640  0.21460  0.83840  Biso   1.000  N
  N90      1.0000 0.90670  0.34580  0.81410  Biso   1.000  N
  N91      1.0000 0.80120  0.07400  0.96400  Biso   1.000  N
  N92      1.0000 0.86290  0.51320  0.11150  Biso   1.000  N
  N93      1.0000 0.65480  0.52460  0.85620  Biso   1.000  N
  N94      1.0000 0.80920  0.74240  0.00100  Biso   1.000  N
  N95      1.0000 0.76970  0.60840  0.97610  Biso   1.000  N
  N96      1.0000 0.75550  0.74770  0.93910  Biso   1.000  N
  Zn37     1.0000 0.11083  0.17375  0.30874  Biso   1.000  Zn
  Br79     1.0000 0.13026  0.14450  0.24776  Biso   1.000  Br
  Br80     1.0000 0.10033  0.31500  0.33740  Biso   1.000  Br
  Zn38     1.0000 0.80640  0.91160  0.45840  Biso   1.000  Zn
  Br81     1.0000 0.74400  0.84400  0.42610  Biso   1.000  Br
  Br82     1.0000 0.84260  0.87280  0.52490  Biso   1.000  Br
  Zn39     1.0000 0.61127  0.45903  0.81112  Biso   1.000  Zn
  Br83     1.0000 0.59733  0.32059  0.84080  Biso   1.000  Br
  Br84     1.0000 0.63279  0.47483  0.75114  Biso   1.000  Br
  Zn40     1.0000 0.87831  0.68587  0.66336  Biso   1.000  Zn
  Br85     1.0000 0.81770  0.74645  0.67478  Biso   1.000  Br
  Br86     1.0000 0.93487  0.77516  0.66205  Biso   1.000  Br
  Zn41     1.0000 0.81286  0.21660  0.96740  Biso   1.000  Zn
  Br87     1.0000 0.75018  0.29060  0.94090  Biso   1.000  Br
  Br88     1.0000 0.85390  0.25040  0.03255  Biso   1.000  Br
  Zn42     1.0000 0.89450  0.44740  0.16400  Biso   1.000  Zn
  Br89     1.0000 0.84720  0.34990  0.18590  Biso   1.000  Br
  Br90     1.0000 0.95370  0.38910  0.15010  Biso   1.000  Br
  Br91     1.0000 0.13390  0.17600  0.25150  Biso   1.000  Br
  Br92     1.0000 0.10080  0.30650  0.34620  Biso   1.000  Br
  Zn43     1.0000 0.79690  0.91300  0.44920  Biso   1.000  Zn
  Br93     1.0000 0.73370  0.86470  0.40680  Biso   1.000  Br
  Br94     1.0000 0.82280  0.86020  0.51510  Biso   1.000  Br
  Zn44     1.0000 0.81970  0.91570  0.47180  Biso   1.000  Zn
  Br95     1.0000 0.75960  0.83030  0.45020  Biso   1.000  Br
  Br96     1.0000 0.86310  0.88610  0.53620  Biso   1.000  Br
  Zn45     1.0000 0.89470  0.68700  0.66170  Biso   1.000  Zn
  Br97     1.0000 0.84470  0.77360  0.68470  Biso   1.000  Br
  Br98     1.0000 0.95830  0.73000  0.64880  Biso   1.000  Br
  Zn46     1.0000 0.79580  0.21140  0.94390  Biso   1.000  Zn
  Br99     1.0000 0.73840  0.26320  0.89470  Biso   1.000  Br
  Br100    1.0000 0.81870  0.27300  0.01000  Biso   1.000  Br
  Zn47     1.0000 0.80220  0.21330  0.95420  Biso   1.000  Zn
  Br101    1.0000 0.73950  0.27400  0.91790  Biso   1.000  Br
  Br102    1.0000 0.83210  0.26050  0.02050  Biso   1.000  Br
  Zn48     1.0000 0.88830  0.43700  0.16220  Biso   1.000  Zn
  Br103    1.0000 0.83230  0.37020  0.17720  Biso   1.000  Br
  Br104    1.0000 0.95250  0.38200  0.16210  Biso   1.000  Br
