data_image0
_cell_length_a       33.391
_cell_length_b       14.3975
_cell_length_c       33.897
_cell_angle_alpha    90
_cell_angle_beta     105.273
_cell_angle_gamma    90

_symmetry_space_group_name_H-M    "P 1"
_symmetry_int_tables_number       1

loop_
  _symmetry_equiv_pos_as_xyz
  'x, y, z'

loop_
  _atom_site_label
  _atom_site_occupancy
  _atom_site_fract_x
  _atom_site_fract_y
  _atom_site_fract_z
  _atom_site_thermal_displace_type
  _atom_site_B_iso_or_equiv
  _atom_site_type_symbol
  C1       1.0000 0.86750  0.03570  0.11100  Biso   1.000  C
  H1       1.0000 0.88070  0.06930  0.13500  Biso   1.000  H
  C2       1.0000 0.84790  0.08410  0.07510  Biso   1.000  C
  H2       1.0000 0.85010  0.14990  0.07420  Biso   1.000  H
  C3       1.0000 0.82570  0.03670  0.04130  Biso   1.000  C
  C4       1.0000 0.82550  0.93820  0.04330  Biso   1.000  C
  H3       1.0000 0.81090  0.90210  0.02060  Biso   1.000  H
  C5       1.0000 0.84700  0.89700  0.07900  Biso   1.000  C
  H4       1.0000 0.84700  0.83110  0.08040  Biso   1.000  H
  C6       1.0000 0.77200  0.46630  0.93600  Biso   1.000  C
  H5       1.0000 0.75440  0.50100  0.91450  Biso   1.000  H
  C7       1.0000 0.76690  0.37260  0.93550  Biso   1.000  C
  H6       1.0000 0.74720  0.34340  0.91350  Biso   1.000  H
  C8       1.0000 0.79080  0.32040  0.96740  Biso   1.000  C
  C9       1.0000 0.81900  0.36820  0.99740  Biso   1.000  C
  H7       1.0000 0.83640  0.33530  0.01970  Biso   1.000  H
  C10      1.0000 0.82210  0.46380  0.99540  Biso   1.000  C
  H8       1.0000 0.84100  0.49530  0.01710  Biso   1.000  H
  C11      1.0000 0.68050  0.90280  0.88610  Biso   1.000  C
  H9       1.0000 0.67730  0.83740  0.88680  Biso   1.000  H
  C12      1.0000 0.71150  0.94540  0.91640  Biso   1.000  C
  H10      1.0000 0.72850  0.90970  0.93790  Biso   1.000  H
  C13      1.0000 0.71740  0.04340  0.91460  Biso   1.000  C
  C14      1.0000 0.69060  0.09190  0.88240  Biso   1.000  C
  H11      1.0000 0.69310  0.15730  0.88020  Biso   1.000  H
  C15      1.0000 0.66090  0.04440  0.85430  Biso   1.000  C
  H12      1.0000 0.64340  0.07890  0.83250  Biso   1.000  H
  C16      1.0000 0.80160  0.08670  0.00450  Biso   1.000  C
  C17      1.0000 0.78530  0.21910  0.97030  Biso   1.000  C
  C18      1.0000 0.75060  0.08830  0.94590  Biso   1.000  C
  C19      1.0000 0.82790  0.72100  0.88980  Biso   1.000  C
  H13      1.0000 0.80170  0.75090  0.88550  Biso   1.000  H
  C20      1.0000 0.84980  0.73430  0.86200  Biso   1.000  C
  H14      1.0000 0.83890  0.77190  0.83860  Biso   1.000  H
  C21      1.0000 0.88790  0.69320  0.86780  Biso   1.000  C
  C22      1.0000 0.90000  0.63340  0.90080  Biso   1.000  C
  H15      1.0000 0.92470  0.59770  0.90510  Biso   1.000  H
  C23      1.0000 0.87530  0.62800  0.92640  Biso   1.000  C
  H16      1.0000 0.88460  0.58970  0.94990  Biso   1.000  H
  C24      1.0000 0.93500  0.98510  0.71440  Biso   1.000  C
  H17      1.0000 0.95500  0.01160  0.70220  Biso   1.000  H
  C25      1.0000 0.94650  0.90790  0.74190  Biso   1.000  C
  H18      1.0000 0.97350  0.88170  0.74770  Biso   1.000  H
  C26      1.0000 0.91710  0.87380  0.75930  Biso   1.000  C
  C27      1.0000 0.87840  0.91190  0.75080  Biso   1.000  C
  H19      1.0000 0.85820  0.88830  0.76340  Biso   1.000  H
  C28      1.0000 0.86900  0.98420  0.72410  Biso   1.000  C
  H20      1.0000 0.84200  0.01060  0.71800  Biso   1.000  H
  C29      1.0000 0.03310  0.45250  0.82790  Biso   1.000  C
  H21      1.0000 0.03680  0.39730  0.84380  Biso   1.000  H
  C30      1.0000 0.00020  0.51000  0.82920  Biso   1.000  C
  H22      1.0000 0.98050  0.49330  0.84370  Biso   1.000  H
  C31      1.0000 0.99780  0.59380  0.80810  Biso   1.000  C
  C32      1.0000 0.02480  0.61350  0.78440  Biso   1.000  C
  H23      1.0000 0.02280  0.66990  0.76940  Biso   1.000  H
  C33      1.0000 0.05530  0.54630  0.78350  Biso   1.000  C
  H24      1.0000 0.07310  0.55650  0.76620  Biso   1.000  H
  C34      1.0000 0.91340  0.70800  0.83880  Biso   1.000  C
  C35      1.0000 0.92680  0.78960  0.78780  Biso   1.000  C
  C36      1.0000 0.96420  0.66070  0.81040  Biso   1.000  C
  C37      1.0000 0.84100  0.09930  0.57530  Biso   1.000  C
  H25      1.0000 0.84130  0.16520  0.57600  Biso   1.000  H
  C38      1.0000 0.82110  0.05590  0.54000  Biso   1.000  C
  H26      1.0000 0.80750  0.09140  0.51670  Biso   1.000  H
  C39      1.0000 0.82060  0.95880  0.53810  Biso   1.000  C
  C40      1.0000 0.84100  0.90850  0.57350  Biso   1.000  C
  H27      1.0000 0.84120  0.84250  0.57360  Biso   1.000  H
  C41      1.0000 0.86060  0.95820  0.60790  Biso   1.000  C
  H28      1.0000 0.87480  0.92460  0.63160  Biso   1.000  H
  C42      1.0000 0.65810  0.95420  0.34980  Biso   1.000  C
  H29      1.0000 0.63980  0.92120  0.32820  Biso   1.000  H
  C43      1.0000 0.68800  0.90420  0.37970  Biso   1.000  C
  H30      1.0000 0.68990  0.83850  0.37860  Biso   1.000  H
  C44      1.0000 0.71420  0.95480  0.41050  Biso   1.000  C
  C45      1.0000 0.71040  0.04890  0.41170  Biso   1.000  C
  H31      1.0000 0.72830  0.08390  0.43300  Biso   1.000  H
  C46      1.0000 0.68010  0.09310  0.38160  Biso   1.000  C
  H32      1.0000 0.67730  0.15860  0.38250  Biso   1.000  H
  C47      1.0000 0.81620  0.52680  0.49240  Biso   1.000  C
  H33      1.0000 0.83260  0.49250  0.51470  Biso   1.000  H
  C48      1.0000 0.81310  0.62540  0.49520  Biso   1.000  C
  H34      1.0000 0.82830  0.65780  0.51880  Biso   1.000  H
  C49      1.0000 0.78810  0.67160  0.46330  Biso   1.000  C
  C50      1.0000 0.76580  0.62290  0.42790  Biso   1.000  C
  H35      1.0000 0.74750  0.65450  0.40580  Biso   1.000  H
  C51      1.0000 0.77160  0.52830  0.42680  Biso   1.000  C
  H36      1.0000 0.75780  0.49480  0.40290  Biso   1.000  H
  C52      1.0000 0.79710  0.90790  0.50150  Biso   1.000  C
  C53      1.0000 0.74640  0.90340  0.44190  Biso   1.000  C
  C54      1.0000 0.78120  0.77440  0.46630  Biso   1.000  C
  C55      1.0000 0.53530  0.05340  0.32720  Biso   1.000  C
  H37      1.0000 0.53880  0.10870  0.34300  Biso   1.000  H
  C56      1.0000 0.50530  0.99040  0.33010  Biso   1.000  C
  H38      1.0000 0.48930  0.00100  0.34900  Biso   1.000  H
  C57      1.0000 0.49810  0.91160  0.30580  Biso   1.000  C
  C58      1.0000 0.52210  0.89770  0.27900  Biso   1.000  C
  H39      1.0000 0.51830  0.84410  0.26210  Biso   1.000  H
  C59      1.0000 0.55230  0.96460  0.27720  Biso   1.000  C
  H40      1.0000 0.56800  0.95770  0.25770  Biso   1.000  H
  C60      1.0000 0.37810  0.86610  0.42810  Biso   1.000  C
  H41      1.0000 0.38820  0.89900  0.45310  Biso   1.000  H
  C61      1.0000 0.40270  0.86160  0.39880  Biso   1.000  C
  H42      1.0000 0.42660  0.89970  0.40210  Biso   1.000  H
  C62      1.0000 0.39120  0.80230  0.36650  Biso   1.000  C
  C63      1.0000 0.35480  0.75460  0.36130  Biso   1.000  C
  H43      1.0000 0.34640  0.71160  0.33940  Biso   1.000  H
  C64      1.0000 0.33040  0.76900  0.38760  Biso   1.000  C
  H44      1.0000 0.30440  0.73840  0.38260  Biso   1.000  H
  C65      1.0000 0.44780  0.52370  0.21560  Biso   1.000  C
  H45      1.0000 0.46900  0.50190  0.20390  Biso   1.000  H
  C66      1.0000 0.45610  0.59800  0.24120  Biso   1.000  C
  H46      1.0000 0.48230  0.62810  0.24690  Biso   1.000  H
  C67      1.0000 0.42530  0.62930  0.25880  Biso   1.000  C
  C68      1.0000 0.38720  0.58170  0.24950  Biso   1.000  C
  H47      1.0000 0.36600  0.60010  0.26170  Biso   1.000  H
  C69      1.0000 0.38100  0.50900  0.22290  Biso   1.000  C
  H48      1.0000 0.35480  0.47890  0.21620  Biso   1.000  H
  C70      1.0000 0.46640  0.84170  0.30900  Biso   1.000  C
  C71      1.0000 0.41740  0.79120  0.33750  Biso   1.000  C
  C72      1.0000 0.43300  0.70800  0.28700  Biso   1.000  C
  N1       1.0000 0.86780  0.94350  0.11170  Biso   1.000  N
  N2       1.0000 0.79970  0.51310  0.96440  Biso   1.000  N
  N3       1.0000 0.65460  0.95260  0.85520  Biso   1.000  N
  N4       1.0000 0.80950  0.17530  0.00190  Biso   1.000  N
  N5       1.0000 0.75430  0.18070  0.94030  Biso   1.000  N
  N6       1.0000 0.77130  0.03880  0.97760  Biso   1.000  N
  N7       1.0000 0.84090  0.66900  0.92220  Biso   1.000  N
  N8       1.0000 0.89740  0.01940  0.70580  Biso   1.000  N
  N9       1.0000 0.06010  0.46900  0.80590  Biso   1.000  N
  N10      1.0000 0.90400  0.78110  0.81320  Biso   1.000  N
  N11      1.0000 0.95800  0.73350  0.78370  Biso   1.000  N
  N12      1.0000 0.94510  0.64900  0.83930  Biso   1.000  N
  N13      1.0000 0.86070  0.05190  0.61010  Biso   1.000  N
  N14      1.0000 0.65510  0.04530  0.35140  Biso   1.000  N
  N15      1.0000 0.79570  0.48270  0.45800  Biso   1.000  N
  N16      1.0000 0.76880  0.95400  0.47440  Biso   1.000  N
  N17      1.0000 0.75250  0.81470  0.43730  Biso   1.000  N
  N18      1.0000 0.80580  0.81650  0.49910  Biso   1.000  N
  N19      1.0000 0.55940  0.03800  0.30260  Biso   1.000  N
  N20      1.0000 0.34240  0.82510  0.42030  Biso   1.000  N
  N21      1.0000 0.41010  0.47870  0.20590  Biso   1.000  N
  N22      1.0000 0.44550  0.85520  0.33700  Biso   1.000  N
  N23      1.0000 0.40900  0.71500  0.31320  Biso   1.000  N
  N24      1.0000 0.46110  0.77040  0.28310  Biso   1.000  N
  Zn1      1.0000 0.89710  0.87220  0.16446  Biso   1.000  Zn
  Cl1      1.0000 0.95800  0.82560  0.15650  Biso   1.000  Cl
  Cl2      1.0000 0.85090  0.78130  0.18170  Biso   1.000  Cl
  Zn2      1.0000 0.80635  0.65440  0.96360  Biso   1.000  Zn
  Cl3      1.0000 0.84220  0.69060  0.02590  Biso   1.000  Cl
  Cl4      1.0000 0.74493  0.71680  0.93440  Biso   1.000  Cl
  Zn3      1.0000 0.61050  0.88530  0.81074  Biso   1.000  Zn
  Cl5      1.0000 0.59830  0.75150  0.83780  Biso   1.000  Cl
  Cl6      1.0000 0.63030  0.90420  0.75340  Biso   1.000  Cl
  Zn4      1.0000 0.87825  0.12526  0.66383  Biso   1.000  Zn
  Cl7      1.0000 0.93290  0.21140  0.66541  Biso   1.000  Cl
  Cl8      1.0000 0.81759  0.17930  0.67169  Biso   1.000  Cl
  Zn5      1.0000 0.61174  0.11583  0.30558  Biso   1.000  Zn
  Cl9      1.0000 0.62944  0.08400  0.24841  Biso   1.000  Cl
  Cl10     1.0000 0.60357  0.25160  0.33363  Biso   1.000  Cl
  Zn6      1.0000 0.30041  0.84050  0.45439  Biso   1.000  Zn
  Cl11     1.0000 0.24050  0.78310  0.41770  Biso   1.000  Cl
  Cl12     1.0000 0.32910  0.79810  0.51760  Biso   1.000  Cl
  Zn7      1.0000 0.91360  0.87030  0.15560  Biso   1.000  Zn
  Cl13     1.0000 0.97700  0.83800  0.15000  Biso   1.000  Cl
  Cl14     1.0000 0.87200  0.76300  0.17100  Biso   1.000  Cl
  Zn8      1.0000 0.80010  0.65800  0.95800  Biso   1.000  Zn
  Cl15     1.0000 0.82600  0.70100  0.02200  Biso   1.000  Cl
  Cl16     1.0000 0.74600  0.70300  0.90700  Biso   1.000  Cl
  Zn9      1.0000 0.61700  0.87600  0.80690  Biso   1.000  Zn
  Cl17     1.0000 0.60900  0.75300  0.83800  Biso   1.000  Cl
  Cl18     1.0000 0.63500  0.87500  0.76200  Biso   1.000  Cl
  Zn10     1.0000 0.90820  0.12130  0.65880  Biso   1.000  Zn
  Cl19     1.0000 0.96720  0.15100  0.64280  Biso   1.000  Cl
  Cl20     1.0000 0.86340  0.22000  0.67780  Biso   1.000  Cl
  Zn11     1.0000 0.31620  0.83770  0.47060  Biso   1.000  Zn
  Cl21     1.0000 0.35600  0.81310  0.53220  Biso   1.000  Cl
  Cl22     1.0000 0.25720  0.76660  0.44510  Biso   1.000  Cl
  C73      1.0000 0.36750  0.53570  0.11100  Biso   1.000  C
  H49      1.0000 0.38070  0.56930  0.13500  Biso   1.000  H
  C74      1.0000 0.34790  0.58410  0.07510  Biso   1.000  C
  H50      1.0000 0.35010  0.64990  0.07420  Biso   1.000  H
  C75      1.0000 0.32570  0.53670  0.04130  Biso   1.000  C
  C76      1.0000 0.32550  0.43820  0.04330  Biso   1.000  C
  H51      1.0000 0.31090  0.40210  0.02060  Biso   1.000  H
  C77      1.0000 0.34700  0.39700  0.07900  Biso   1.000  C
  H52      1.0000 0.34700  0.33110  0.08040  Biso   1.000  H
  C78      1.0000 0.27200  0.96630  0.93600  Biso   1.000  C
  H53      1.0000 0.25440  0.00100  0.91450  Biso   1.000  H
  C79      1.0000 0.26690  0.87260  0.93550  Biso   1.000  C
  H54      1.0000 0.24720  0.84340  0.91350  Biso   1.000  H
  C80      1.0000 0.29080  0.82040  0.96740  Biso   1.000  C
  C81      1.0000 0.31900  0.86820  0.99740  Biso   1.000  C
  H55      1.0000 0.33640  0.83530  0.01970  Biso   1.000  H
  C82      1.0000 0.32210  0.96380  0.99540  Biso   1.000  C
  H56      1.0000 0.34100  0.99530  0.01710  Biso   1.000  H
  C83      1.0000 0.18050  0.40280  0.88610  Biso   1.000  C
  H57      1.0000 0.17730  0.33740  0.88680  Biso   1.000  H
  C84      1.0000 0.21150  0.44540  0.91640  Biso   1.000  C
  H58      1.0000 0.22850  0.40970  0.93790  Biso   1.000  H
  C85      1.0000 0.21740  0.54340  0.91460  Biso   1.000  C
  C86      1.0000 0.19060  0.59190  0.88240  Biso   1.000  C
  H59      1.0000 0.19310  0.65730  0.88020  Biso   1.000  H
  C87      1.0000 0.16090  0.54440  0.85430  Biso   1.000  C
  H60      1.0000 0.14340  0.57890  0.83250  Biso   1.000  H
  C88      1.0000 0.30160  0.58670  0.00450  Biso   1.000  C
  C89      1.0000 0.28530  0.71910  0.97030  Biso   1.000  C
  C90      1.0000 0.25060  0.58830  0.94590  Biso   1.000  C
  C91      1.0000 0.32790  0.22100  0.88980  Biso   1.000  C
  H61      1.0000 0.30170  0.25090  0.88550  Biso   1.000  H
  C92      1.0000 0.34980  0.23430  0.86200  Biso   1.000  C
  H62      1.0000 0.33890  0.27190  0.83860  Biso   1.000  H
  C93      1.0000 0.38790  0.19320  0.86780  Biso   1.000  C
  C94      1.0000 0.40000  0.13340  0.90080  Biso   1.000  C
  H63      1.0000 0.42470  0.09770  0.90510  Biso   1.000  H
  C95      1.0000 0.37530  0.12800  0.92640  Biso   1.000  C
  H64      1.0000 0.38460  0.08970  0.94990  Biso   1.000  H
  C96      1.0000 0.43500  0.48510  0.71440  Biso   1.000  C
  H65      1.0000 0.45500  0.51160  0.70220  Biso   1.000  H
  C97      1.0000 0.44650  0.40790  0.74190  Biso   1.000  C
  H66      1.0000 0.47350  0.38170  0.74770  Biso   1.000  H
  C98      1.0000 0.41710  0.37380  0.75930  Biso   1.000  C
  C99      1.0000 0.37840  0.41190  0.75080  Biso   1.000  C
  H67      1.0000 0.35820  0.38830  0.76340  Biso   1.000  H
  C100     1.0000 0.36900  0.48420  0.72410  Biso   1.000  C
  H68      1.0000 0.34200  0.51060  0.71800  Biso   1.000  H
  C101     1.0000 0.53310  0.95250  0.82790  Biso   1.000  C
  H69      1.0000 0.53680  0.89730  0.84380  Biso   1.000  H
  C102     1.0000 0.50020  0.01000  0.82920  Biso   1.000  C
  H70      1.0000 0.48050  0.99330  0.84370  Biso   1.000  H
  C103     1.0000 0.49780  0.09380  0.80810  Biso   1.000  C
  C104     1.0000 0.52480  0.11350  0.78440  Biso   1.000  C
  H71      1.0000 0.52280  0.16990  0.76940  Biso   1.000  H
  C105     1.0000 0.55530  0.04630  0.78350  Biso   1.000  C
  H72      1.0000 0.57310  0.05650  0.76620  Biso   1.000  H
  C106     1.0000 0.41340  0.20800  0.83880  Biso   1.000  C
  C107     1.0000 0.42680  0.28960  0.78780  Biso   1.000  C
  C108     1.0000 0.46420  0.16070  0.81040  Biso   1.000  C
  C109     1.0000 0.34100  0.59930  0.57530  Biso   1.000  C
  H73      1.0000 0.34130  0.66520  0.57600  Biso   1.000  H
  C110     1.0000 0.32110  0.55590  0.54000  Biso   1.000  C
  H74      1.0000 0.30750  0.59140  0.51670  Biso   1.000  H
  C111     1.0000 0.32060  0.45880  0.53810  Biso   1.000  C
  C112     1.0000 0.34100  0.40850  0.57350  Biso   1.000  C
  H75      1.0000 0.34120  0.34250  0.57360  Biso   1.000  H
  C113     1.0000 0.36060  0.45820  0.60790  Biso   1.000  C
  H76      1.0000 0.37480  0.42460  0.63160  Biso   1.000  H
  C114     1.0000 0.15810  0.45420  0.34980  Biso   1.000  C
  H77      1.0000 0.13980  0.42120  0.32820  Biso   1.000  H
  C115     1.0000 0.18800  0.40420  0.37970  Biso   1.000  C
  H78      1.0000 0.18990  0.33850  0.37860  Biso   1.000  H
  C116     1.0000 0.21420  0.45480  0.41050  Biso   1.000  C
  C117     1.0000 0.21040  0.54890  0.41170  Biso   1.000  C
  H79      1.0000 0.22830  0.58390  0.43300  Biso   1.000  H
  C118     1.0000 0.18010  0.59310  0.38160  Biso   1.000  C
  H80      1.0000 0.17730  0.65860  0.38250  Biso   1.000  H
  C119     1.0000 0.31620  0.02680  0.49240  Biso   1.000  C
  H81      1.0000 0.33260  0.99250  0.51470  Biso   1.000  H
  C120     1.0000 0.31310  0.12540  0.49520  Biso   1.000  C
  H82      1.0000 0.32830  0.15780  0.51880  Biso   1.000  H
  C121     1.0000 0.28810  0.17160  0.46330  Biso   1.000  C
  C122     1.0000 0.26580  0.12290  0.42790  Biso   1.000  C
  H83      1.0000 0.24750  0.15450  0.40580  Biso   1.000  H
  C123     1.0000 0.27160  0.02830  0.42680  Biso   1.000  C
  H84      1.0000 0.25780  0.99480  0.40290  Biso   1.000  H
  C124     1.0000 0.29710  0.40790  0.50150  Biso   1.000  C
  C125     1.0000 0.24640  0.40340  0.44190  Biso   1.000  C
  C126     1.0000 0.28120  0.27440  0.46630  Biso   1.000  C
  C127     1.0000 0.03530  0.55340  0.32720  Biso   1.000  C
  H85      1.0000 0.03880  0.60870  0.34300  Biso   1.000  H
  C128     1.0000 0.00530  0.49040  0.33010  Biso   1.000  C
  H86      1.0000 0.98930  0.50100  0.34900  Biso   1.000  H
  C129     1.0000 0.99810  0.41160  0.30580  Biso   1.000  C
  C130     1.0000 0.02210  0.39770  0.27900  Biso   1.000  C
  H87      1.0000 0.01830  0.34410  0.26210  Biso   1.000  H
  C131     1.0000 0.05230  0.46460  0.27720  Biso   1.000  C
  H88      1.0000 0.06800  0.45770  0.25770  Biso   1.000  H
  C132     1.0000 0.87810  0.36610  0.42810  Biso   1.000  C
  H89      1.0000 0.88820  0.39900  0.45310  Biso   1.000  H
  C133     1.0000 0.90270  0.36160  0.39880  Biso   1.000  C
  H90      1.0000 0.92660  0.39970  0.40210  Biso   1.000  H
  C134     1.0000 0.89120  0.30230  0.36650  Biso   1.000  C
  C135     1.0000 0.85480  0.25460  0.36130  Biso   1.000  C
  H91      1.0000 0.84640  0.21160  0.33940  Biso   1.000  H
  C136     1.0000 0.83040  0.26900  0.38760  Biso   1.000  C
  H92      1.0000 0.80440  0.23840  0.38260  Biso   1.000  H
  C137     1.0000 0.94780  0.02370  0.21560  Biso   1.000  C
  H93      1.0000 0.96900  0.00190  0.20390  Biso   1.000  H
  C138     1.0000 0.95610  0.09800  0.24120  Biso   1.000  C
  H94      1.0000 0.98230  0.12810  0.24690  Biso   1.000  H
  C139     1.0000 0.92530  0.12930  0.25880  Biso   1.000  C
  C140     1.0000 0.88720  0.08170  0.24950  Biso   1.000  C
  H95      1.0000 0.86600  0.10010  0.26170  Biso   1.000  H
  C141     1.0000 0.88100  0.00900  0.22290  Biso   1.000  C
  H96      1.0000 0.85480  0.97890  0.21620  Biso   1.000  H
  C142     1.0000 0.96640  0.34170  0.30900  Biso   1.000  C
  C143     1.0000 0.91740  0.29120  0.33750  Biso   1.000  C
  C144     1.0000 0.93300  0.20800  0.28700  Biso   1.000  C
  N25      1.0000 0.36780  0.44350  0.11170  Biso   1.000  N
  N26      1.0000 0.29970  0.01310  0.96440  Biso   1.000  N
  N27      1.0000 0.15460  0.45260  0.85520  Biso   1.000  N
  N28      1.0000 0.30950  0.67530  0.00190  Biso   1.000  N
  N29      1.0000 0.25430  0.68070  0.94030  Biso   1.000  N
  N30      1.0000 0.27130  0.53880  0.97760  Biso   1.000  N
  N31      1.0000 0.34090  0.16900  0.92220  Biso   1.000  N
  N32      1.0000 0.39740  0.51940  0.70580  Biso   1.000  N
  N33      1.0000 0.56010  0.96900  0.80590  Biso   1.000  N
  N34      1.0000 0.40400  0.28110  0.81320  Biso   1.000  N
  N35      1.0000 0.45800  0.23350  0.78370  Biso   1.000  N
  N36      1.0000 0.44510  0.14900  0.83930  Biso   1.000  N
  N37      1.0000 0.36070  0.55190  0.61010  Biso   1.000  N
  N38      1.0000 0.15510  0.54530  0.35140  Biso   1.000  N
  N39      1.0000 0.29570  0.98270  0.45800  Biso   1.000  N
  N40      1.0000 0.26880  0.45400  0.47440  Biso   1.000  N
  N41      1.0000 0.25250  0.31470  0.43730  Biso   1.000  N
  N42      1.0000 0.30580  0.31650  0.49910  Biso   1.000  N
  N43      1.0000 0.05940  0.53800  0.30260  Biso   1.000  N
  N44      1.0000 0.84240  0.32510  0.42030  Biso   1.000  N
  N45      1.0000 0.91010  0.97870  0.20590  Biso   1.000  N
  N46      1.0000 0.94550  0.35520  0.33700  Biso   1.000  N
  N47      1.0000 0.90900  0.21500  0.31320  Biso   1.000  N
  N48      1.0000 0.96110  0.27040  0.28310  Biso   1.000  N
  Zn12     1.0000 0.39710  0.37220  0.16446  Biso   1.000  Zn
  Cl23     1.0000 0.45800  0.32560  0.15650  Biso   1.000  Cl
  Cl24     1.0000 0.35090  0.28130  0.18170  Biso   1.000  Cl
  Zn13     1.0000 0.30635  0.15440  0.96360  Biso   1.000  Zn
  Cl25     1.0000 0.34220  0.19060  0.02590  Biso   1.000  Cl
  Cl26     1.0000 0.24493  0.21680  0.93440  Biso   1.000  Cl
  Zn14     1.0000 0.11050  0.38530  0.81074  Biso   1.000  Zn
  Cl27     1.0000 0.09830  0.25150  0.83780  Biso   1.000  Cl
  Cl28     1.0000 0.13030  0.40420  0.75340  Biso   1.000  Cl
  Zn15     1.0000 0.37825  0.62526  0.66383  Biso   1.000  Zn
  Cl29     1.0000 0.43290  0.71140  0.66541  Biso   1.000  Cl
  Cl30     1.0000 0.31759  0.67930  0.67169  Biso   1.000  Cl
  Zn16     1.0000 0.11174  0.61583  0.30558  Biso   1.000  Zn
  Cl31     1.0000 0.12944  0.58400  0.24841  Biso   1.000  Cl
  Cl32     1.0000 0.10357  0.75160  0.33363  Biso   1.000  Cl
  Zn17     1.0000 0.80041  0.34050  0.45439  Biso   1.000  Zn
  Cl33     1.0000 0.74050  0.28310  0.41770  Biso   1.000  Cl
  Cl34     1.0000 0.82910  0.29810  0.51760  Biso   1.000  Cl
  Zn18     1.0000 0.41360  0.37030  0.15560  Biso   1.000  Zn
  Cl35     1.0000 0.47700  0.33800  0.15000  Biso   1.000  Cl
  Cl36     1.0000 0.37200  0.26300  0.17100  Biso   1.000  Cl
  Zn19     1.0000 0.30010  0.15800  0.95800  Biso   1.000  Zn
  Cl37     1.0000 0.32600  0.20100  0.02200  Biso   1.000  Cl
  Cl38     1.0000 0.24600  0.20300  0.90700  Biso   1.000  Cl
  Zn20     1.0000 0.11700  0.37600  0.80690  Biso   1.000  Zn
  Cl39     1.0000 0.10900  0.25300  0.83800  Biso   1.000  Cl
  Cl40     1.0000 0.13500  0.37500  0.76200  Biso   1.000  Cl
  Zn21     1.0000 0.40820  0.62130  0.65880  Biso   1.000  Zn
  Cl41     1.0000 0.46720  0.65100  0.64280  Biso   1.000  Cl
  Cl42     1.0000 0.36340  0.72000  0.67780  Biso   1.000  Cl
  Zn22     1.0000 0.81620  0.33770  0.47060  Biso   1.000  Zn
  Cl43     1.0000 0.85600  0.31310  0.53220  Biso   1.000  Cl
  Cl44     1.0000 0.75720  0.26660  0.44510  Biso   1.000  Cl
  C145     1.0000 0.13250  0.03570  0.88900  Biso   1.000  C
  H97      1.0000 0.11930  0.06930  0.86500  Biso   1.000  H
  C146     1.0000 0.15210  0.08410  0.92490  Biso   1.000  C
  H98      1.0000 0.14990  0.14990  0.92580  Biso   1.000  H
  C147     1.0000 0.17430  0.03670  0.95870  Biso   1.000  C
  C148     1.0000 0.17450  0.93820  0.95670  Biso   1.000  C
  H99      1.0000 0.18910  0.90210  0.97940  Biso   1.000  H
  C149     1.0000 0.15300  0.89700  0.92100  Biso   1.000  C
  H100     1.0000 0.15300  0.83110  0.91960  Biso   1.000  H
  C150     1.0000 0.22800  0.46630  0.06400  Biso   1.000  C
  H101     1.0000 0.24560  0.50100  0.08550  Biso   1.000  H
  C151     1.0000 0.23310  0.37260  0.06450  Biso   1.000  C
  H102     1.0000 0.25280  0.34340  0.08650  Biso   1.000  H
  C152     1.0000 0.20920  0.32040  0.03260  Biso   1.000  C
  C153     1.0000 0.18100  0.36820  0.00260  Biso   1.000  C
  H103     1.0000 0.16360  0.33530  0.98030  Biso   1.000  H
  C154     1.0000 0.17790  0.46380  0.00460  Biso   1.000  C
  H104     1.0000 0.15900  0.49530  0.98290  Biso   1.000  H
  C155     1.0000 0.31950  0.90280  0.11390  Biso   1.000  C
  H105     1.0000 0.32270  0.83740  0.11320  Biso   1.000  H
  C156     1.0000 0.28850  0.94540  0.08360  Biso   1.000  C
  H106     1.0000 0.27150  0.90970  0.06210  Biso   1.000  H
  C157     1.0000 0.28260  0.04340  0.08540  Biso   1.000  C
  C158     1.0000 0.30940  0.09190  0.11760  Biso   1.000  C
  H107     1.0000 0.30690  0.15730  0.11980  Biso   1.000  H
  C159     1.0000 0.33910  0.04440  0.14570  Biso   1.000  C
  H108     1.0000 0.35660  0.07890  0.16750  Biso   1.000  H
  C160     1.0000 0.19840  0.08670  0.99550  Biso   1.000  C
  C161     1.0000 0.21470  0.21910  0.02970  Biso   1.000  C
  C162     1.0000 0.24940  0.08830  0.05410  Biso   1.000  C
  C163     1.0000 0.17210  0.72100  0.11020  Biso   1.000  C
  H109     1.0000 0.19830  0.75090  0.11450  Biso   1.000  H
  C164     1.0000 0.15020  0.73430  0.13800  Biso   1.000  C
  H110     1.0000 0.16110  0.77190  0.16140  Biso   1.000  H
  C165     1.0000 0.11210  0.69320  0.13220  Biso   1.000  C
  C166     1.0000 0.10000  0.63340  0.09920  Biso   1.000  C
  H111     1.0000 0.07530  0.59770  0.09490  Biso   1.000  H
  C167     1.0000 0.12470  0.62800  0.07360  Biso   1.000  C
  H112     1.0000 0.11540  0.58970  0.05010  Biso   1.000  H
  C168     1.0000 0.06500  0.98510  0.28560  Biso   1.000  C
  H113     1.0000 0.04500  0.01160  0.29780  Biso   1.000  H
  C169     1.0000 0.05350  0.90790  0.25810  Biso   1.000  C
  H114     1.0000 0.02650  0.88170  0.25230  Biso   1.000  H
  C170     1.0000 0.08290  0.87380  0.24070  Biso   1.000  C
  C171     1.0000 0.12160  0.91190  0.24920  Biso   1.000  C
  H115     1.0000 0.14180  0.88830  0.23660  Biso   1.000  H
  C172     1.0000 0.13100  0.98420  0.27590  Biso   1.000  C
  H116     1.0000 0.15800  0.01060  0.28200  Biso   1.000  H
  C173     1.0000 0.96690  0.45250  0.17210  Biso   1.000  C
  H117     1.0000 0.96320  0.39730  0.15620  Biso   1.000  H
  C174     1.0000 0.99980  0.51000  0.17080  Biso   1.000  C
  H118     1.0000 0.01950  0.49330  0.15630  Biso   1.000  H
  C175     1.0000 0.00220  0.59380  0.19190  Biso   1.000  C
  C176     1.0000 0.97520  0.61350  0.21560  Biso   1.000  C
  H119     1.0000 0.97720  0.66990  0.23060  Biso   1.000  H
  C177     1.0000 0.94470  0.54630  0.21650  Biso   1.000  C
  H120     1.0000 0.92690  0.55650  0.23380  Biso   1.000  H
  C178     1.0000 0.08660  0.70800  0.16120  Biso   1.000  C
  C179     1.0000 0.07320  0.78960  0.21220  Biso   1.000  C
  C180     1.0000 0.03580  0.66070  0.18960  Biso   1.000  C
  C181     1.0000 0.15900  0.09930  0.42470  Biso   1.000  C
  H121     1.0000 0.15870  0.16520  0.42400  Biso   1.000  H
  C182     1.0000 0.17890  0.05590  0.46000  Biso   1.000  C
  H122     1.0000 0.19250  0.09140  0.48330  Biso   1.000  H
  C183     1.0000 0.17940  0.95880  0.46190  Biso   1.000  C
  C184     1.0000 0.15900  0.90850  0.42650  Biso   1.000  C
  H123     1.0000 0.15880  0.84250  0.42640  Biso   1.000  H
  C185     1.0000 0.13940  0.95820  0.39210  Biso   1.000  C
  H124     1.0000 0.12520  0.92460  0.36840  Biso   1.000  H
  C186     1.0000 0.34190  0.95420  0.65020  Biso   1.000  C
  H125     1.0000 0.36020  0.92120  0.67180  Biso   1.000  H
  C187     1.0000 0.31200  0.90420  0.62030  Biso   1.000  C
  H126     1.0000 0.31010  0.83850  0.62140  Biso   1.000  H
  C188     1.0000 0.28580  0.95480  0.58950  Biso   1.000  C
  C189     1.0000 0.28960  0.04890  0.58830  Biso   1.000  C
  H127     1.0000 0.27170  0.08390  0.56700  Biso   1.000  H
  C190     1.0000 0.31990  0.09310  0.61840  Biso   1.000  C
  H128     1.0000 0.32270  0.15860  0.61750  Biso   1.000  H
  C191     1.0000 0.18380  0.52680  0.50760  Biso   1.000  C
  H129     1.0000 0.16740  0.49250  0.48530  Biso   1.000  H
  C192     1.0000 0.18690  0.62540  0.50480  Biso   1.000  C
  H130     1.0000 0.17170  0.65780  0.48120  Biso   1.000  H
  C193     1.0000 0.21190  0.67160  0.53670  Biso   1.000  C
  C194     1.0000 0.23420  0.62290  0.57210  Biso   1.000  C
  H131     1.0000 0.25250  0.65450  0.59420  Biso   1.000  H
  C195     1.0000 0.22840  0.52830  0.57320  Biso   1.000  C
  H132     1.0000 0.24220  0.49480  0.59710  Biso   1.000  H
  C196     1.0000 0.20290  0.90790  0.49850  Biso   1.000  C
  C197     1.0000 0.25360  0.90340  0.55810  Biso   1.000  C
  C198     1.0000 0.21880  0.77440  0.53370  Biso   1.000  C
  C199     1.0000 0.46470  0.05340  0.67280  Biso   1.000  C
  H133     1.0000 0.46120  0.10870  0.65700  Biso   1.000  H
  C200     1.0000 0.49470  0.99040  0.66990  Biso   1.000  C
  H134     1.0000 0.51070  0.00100  0.65100  Biso   1.000  H
  C201     1.0000 0.50190  0.91160  0.69420  Biso   1.000  C
  C202     1.0000 0.47790  0.89770  0.72100  Biso   1.000  C
  H135     1.0000 0.48170  0.84410  0.73790  Biso   1.000  H
  C203     1.0000 0.44770  0.96460  0.72280  Biso   1.000  C
  H136     1.0000 0.43200  0.95770  0.74230  Biso   1.000  H
  C204     1.0000 0.62190  0.86610  0.57190  Biso   1.000  C
  H137     1.0000 0.61180  0.89900  0.54690  Biso   1.000  H
  C205     1.0000 0.59730  0.86160  0.60120  Biso   1.000  C
  H138     1.0000 0.57340  0.89970  0.59790  Biso   1.000  H
  C206     1.0000 0.60880  0.80230  0.63350  Biso   1.000  C
  C207     1.0000 0.64520  0.75460  0.63870  Biso   1.000  C
  H139     1.0000 0.65360  0.71160  0.66060  Biso   1.000  H
  C208     1.0000 0.66960  0.76900  0.61240  Biso   1.000  C
  H140     1.0000 0.69560  0.73840  0.61740  Biso   1.000  H
  C209     1.0000 0.55220  0.52370  0.78440  Biso   1.000  C
  H141     1.0000 0.53100  0.50190  0.79610  Biso   1.000  H
  C210     1.0000 0.54390  0.59800  0.75880  Biso   1.000  C
  H142     1.0000 0.51770  0.62810  0.75310  Biso   1.000  H
  C211     1.0000 0.57470  0.62930  0.74120  Biso   1.000  C
  C212     1.0000 0.61280  0.58170  0.75050  Biso   1.000  C
  H143     1.0000 0.63400  0.60010  0.73830  Biso   1.000  H
  C213     1.0000 0.61900  0.50900  0.77710  Biso   1.000  C
  H144     1.0000 0.64520  0.47890  0.78380  Biso   1.000  H
  C214     1.0000 0.53360  0.84170  0.69100  Biso   1.000  C
  C215     1.0000 0.58260  0.79120  0.66250  Biso   1.000  C
  C216     1.0000 0.56700  0.70800  0.71300  Biso   1.000  C
  N49      1.0000 0.13220  0.94350  0.88830  Biso   1.000  N
  N50      1.0000 0.20030  0.51310  0.03560  Biso   1.000  N
  N51      1.0000 0.34540  0.95260  0.14480  Biso   1.000  N
  N52      1.0000 0.19050  0.17530  0.99810  Biso   1.000  N
  N53      1.0000 0.24570  0.18070  0.05970  Biso   1.000  N
  N54      1.0000 0.22870  0.03880  0.02240  Biso   1.000  N
  N55      1.0000 0.15910  0.66900  0.07780  Biso   1.000  N
  N56      1.0000 0.10260  0.01940  0.29420  Biso   1.000  N
  N57      1.0000 0.93990  0.46900  0.19410  Biso   1.000  N
  N58      1.0000 0.09600  0.78110  0.18680  Biso   1.000  N
  N59      1.0000 0.04200  0.73350  0.21630  Biso   1.000  N
  N60      1.0000 0.05490  0.64900  0.16070  Biso   1.000  N
  N61      1.0000 0.13930  0.05190  0.38990  Biso   1.000  N
  N62      1.0000 0.34490  0.04530  0.64860  Biso   1.000  N
  N63      1.0000 0.20430  0.48270  0.54200  Biso   1.000  N
  N64      1.0000 0.23120  0.95400  0.52560  Biso   1.000  N
  N65      1.0000 0.24750  0.81470  0.56270  Biso   1.000  N
  N66      1.0000 0.19420  0.81650  0.50090  Biso   1.000  N
  N67      1.0000 0.44060  0.03800  0.69740  Biso   1.000  N
  N68      1.0000 0.65760  0.82510  0.57970  Biso   1.000  N
  N69      1.0000 0.58990  0.47870  0.79410  Biso   1.000  N
  N70      1.0000 0.55450  0.85520  0.66300  Biso   1.000  N
  N71      1.0000 0.59100  0.71500  0.68680  Biso   1.000  N
  N72      1.0000 0.53890  0.77040  0.71690  Biso   1.000  N
  Zn23     1.0000 0.10290  0.87220  0.83554  Biso   1.000  Zn
  Cl45     1.0000 0.04200  0.82560  0.84350  Biso   1.000  Cl
  Cl46     1.0000 0.14910  0.78130  0.81830  Biso   1.000  Cl
  Zn24     1.0000 0.19365  0.65440  0.03640  Biso   1.000  Zn
  Cl47     1.0000 0.15780  0.69060  0.97410  Biso   1.000  Cl
  Cl48     1.0000 0.25507  0.71680  0.06560  Biso   1.000  Cl
  Zn25     1.0000 0.38950  0.88530  0.18926  Biso   1.000  Zn
  Cl49     1.0000 0.40170  0.75150  0.16220  Biso   1.000  Cl
  Cl50     1.0000 0.36970  0.90420  0.24660  Biso   1.000  Cl
  Zn26     1.0000 0.12175  0.12526  0.33617  Biso   1.000  Zn
  Cl51     1.0000 0.06710  0.21140  0.33459  Biso   1.000  Cl
  Cl52     1.0000 0.18241  0.17930  0.32831  Biso   1.000  Cl
  Zn27     1.0000 0.38826  0.11583  0.69442  Biso   1.000  Zn
  Cl53     1.0000 0.37056  0.08400  0.75159  Biso   1.000  Cl
  Cl54     1.0000 0.39643  0.25160  0.66637  Biso   1.000  Cl
  Zn28     1.0000 0.69959  0.84050  0.54561  Biso   1.000  Zn
  Cl55     1.0000 0.75950  0.78310  0.58230  Biso   1.000  Cl
  Cl56     1.0000 0.67090  0.79810  0.48240  Biso   1.000  Cl
  Zn29     1.0000 0.08640  0.87030  0.84440  Biso   1.000  Zn
  Cl57     1.0000 0.02300  0.83800  0.85000  Biso   1.000  Cl
  Cl58     1.0000 0.12800  0.76300  0.82900  Biso   1.000  Cl
  Zn30     1.0000 0.19990  0.65800  0.04200  Biso   1.000  Zn
  Cl59     1.0000 0.17400  0.70100  0.97800  Biso   1.000  Cl
  Cl60     1.0000 0.25400  0.70300  0.09300  Biso   1.000  Cl
  Zn31     1.0000 0.38300  0.87600  0.19310  Biso   1.000  Zn
  Cl61     1.0000 0.39100  0.75300  0.16200  Biso   1.000  Cl
  Cl62     1.0000 0.36500  0.87500  0.23800  Biso   1.000  Cl
  Zn32     1.0000 0.09180  0.12130  0.34120  Biso   1.000  Zn
  Cl63     1.0000 0.03280  0.15100  0.35720  Biso   1.000  Cl
  Cl64     1.0000 0.13660  0.22000  0.32220  Biso   1.000  Cl
  Zn33     1.0000 0.68380  0.83770  0.52940  Biso   1.000  Zn
  Cl65     1.0000 0.64400  0.81310  0.46780  Biso   1.000  Cl
  Cl66     1.0000 0.74280  0.76660  0.55490  Biso   1.000  Cl
  C217     1.0000 0.63250  0.53570  0.88900  Biso   1.000  C
  H145     1.0000 0.61930  0.56930  0.86500  Biso   1.000  H
  C218     1.0000 0.65210  0.58410  0.92490  Biso   1.000  C
  H146     1.0000 0.64990  0.64990  0.92580  Biso   1.000  H
  C219     1.0000 0.67430  0.53670  0.95870  Biso   1.000  C
  C220     1.0000 0.67450  0.43820  0.95670  Biso   1.000  C
  H147     1.0000 0.68910  0.40210  0.97940  Biso   1.000  H
  C221     1.0000 0.65300  0.39700  0.92100  Biso   1.000  C
  H148     1.0000 0.65300  0.33110  0.91960  Biso   1.000  H
  C222     1.0000 0.72800  0.96630  0.06400  Biso   1.000  C
  H149     1.0000 0.74560  0.00100  0.08550  Biso   1.000  H
  C223     1.0000 0.73310  0.87260  0.06450  Biso   1.000  C
  H150     1.0000 0.75280  0.84340  0.08650  Biso   1.000  H
  C224     1.0000 0.70920  0.82040  0.03260  Biso   1.000  C
  C225     1.0000 0.68100  0.86820  0.00260  Biso   1.000  C
  H151     1.0000 0.66360  0.83530  0.98030  Biso   1.000  H
  C226     1.0000 0.67790  0.96380  0.00460  Biso   1.000  C
  H152     1.0000 0.65900  0.99530  0.98290  Biso   1.000  H
  C227     1.0000 0.81950  0.40280  0.11390  Biso   1.000  C
  H153     1.0000 0.82270  0.33740  0.11320  Biso   1.000  H
  C228     1.0000 0.78850  0.44540  0.08360  Biso   1.000  C
  H154     1.0000 0.77150  0.40970  0.06210  Biso   1.000  H
  C229     1.0000 0.78260  0.54340  0.08540  Biso   1.000  C
  C230     1.0000 0.80940  0.59190  0.11760  Biso   1.000  C
  H155     1.0000 0.80690  0.65730  0.11980  Biso   1.000  H
  C231     1.0000 0.83910  0.54440  0.14570  Biso   1.000  C
  H156     1.0000 0.85660  0.57890  0.16750  Biso   1.000  H
  C232     1.0000 0.69840  0.58670  0.99550  Biso   1.000  C
  C233     1.0000 0.71470  0.71910  0.02970  Biso   1.000  C
  C234     1.0000 0.74940  0.58830  0.05410  Biso   1.000  C
  C235     1.0000 0.67210  0.22100  0.11020  Biso   1.000  C
  H157     1.0000 0.69830  0.25090  0.11450  Biso   1.000  H
  C236     1.0000 0.65020  0.23430  0.13800  Biso   1.000  C
  H158     1.0000 0.66110  0.27190  0.16140  Biso   1.000  H
  C237     1.0000 0.61210  0.19320  0.13220  Biso   1.000  C
  C238     1.0000 0.60000  0.13340  0.09920  Biso   1.000  C
  H159     1.0000 0.57530  0.09770  0.09490  Biso   1.000  H
  C239     1.0000 0.62470  0.12800  0.07360  Biso   1.000  C
  H160     1.0000 0.61540  0.08970  0.05010  Biso   1.000  H
  C240     1.0000 0.56500  0.48510  0.28560  Biso   1.000  C
  H161     1.0000 0.54500  0.51160  0.29780  Biso   1.000  H
  C241     1.0000 0.55350  0.40790  0.25810  Biso   1.000  C
  H162     1.0000 0.52650  0.38170  0.25230  Biso   1.000  H
  C242     1.0000 0.58290  0.37380  0.24070  Biso   1.000  C
  C243     1.0000 0.62160  0.41190  0.24920  Biso   1.000  C
  H163     1.0000 0.64180  0.38830  0.23660  Biso   1.000  H
  C244     1.0000 0.63100  0.48420  0.27590  Biso   1.000  C
  H164     1.0000 0.65800  0.51060  0.28200  Biso   1.000  H
  C245     1.0000 0.46690  0.95250  0.17210  Biso   1.000  C
  H165     1.0000 0.46320  0.89730  0.15620  Biso   1.000  H
  C246     1.0000 0.49980  0.01000  0.17080  Biso   1.000  C
  H166     1.0000 0.51950  0.99330  0.15630  Biso   1.000  H
  C247     1.0000 0.50220  0.09380  0.19190  Biso   1.000  C
  C248     1.0000 0.47520  0.11350  0.21560  Biso   1.000  C
  H167     1.0000 0.47720  0.16990  0.23060  Biso   1.000  H
  C249     1.0000 0.44470  0.04630  0.21650  Biso   1.000  C
  H168     1.0000 0.42690  0.05650  0.23380  Biso   1.000  H
  C250     1.0000 0.58660  0.20800  0.16120  Biso   1.000  C
  C251     1.0000 0.57320  0.28960  0.21220  Biso   1.000  C
  C252     1.0000 0.53580  0.16070  0.18960  Biso   1.000  C
  C253     1.0000 0.65900  0.59930  0.42470  Biso   1.000  C
  H169     1.0000 0.65870  0.66520  0.42400  Biso   1.000  H
  C254     1.0000 0.67890  0.55590  0.46000  Biso   1.000  C
  H170     1.0000 0.69250  0.59140  0.48330  Biso   1.000  H
  C255     1.0000 0.67940  0.45880  0.46190  Biso   1.000  C
  C256     1.0000 0.65900  0.40850  0.42650  Biso   1.000  C
  H171     1.0000 0.65880  0.34250  0.42640  Biso   1.000  H
  C257     1.0000 0.63940  0.45820  0.39210  Biso   1.000  C
  H172     1.0000 0.62520  0.42460  0.36840  Biso   1.000  H
  C258     1.0000 0.84190  0.45420  0.65020  Biso   1.000  C
  H173     1.0000 0.86020  0.42120  0.67180  Biso   1.000  H
  C259     1.0000 0.81200  0.40420  0.62030  Biso   1.000  C
  H174     1.0000 0.81010  0.33850  0.62140  Biso   1.000  H
  C260     1.0000 0.78580  0.45480  0.58950  Biso   1.000  C
  C261     1.0000 0.78960  0.54890  0.58830  Biso   1.000  C
  H175     1.0000 0.77170  0.58390  0.56700  Biso   1.000  H
  C262     1.0000 0.81990  0.59310  0.61840  Biso   1.000  C
  H176     1.0000 0.82270  0.65860  0.61750  Biso   1.000  H
  C263     1.0000 0.68380  0.02680  0.50760  Biso   1.000  C
  H177     1.0000 0.66740  0.99250  0.48530  Biso   1.000  H
  C264     1.0000 0.68690  0.12540  0.50480  Biso   1.000  C
  H178     1.0000 0.67170  0.15780  0.48120  Biso   1.000  H
  C265     1.0000 0.71190  0.17160  0.53670  Biso   1.000  C
  C266     1.0000 0.73420  0.12290  0.57210  Biso   1.000  C
  H179     1.0000 0.75250  0.15450  0.59420  Biso   1.000  H
  C267     1.0000 0.72840  0.02830  0.57320  Biso   1.000  C
  H180     1.0000 0.74220  0.99480  0.59710  Biso   1.000  H
  C268     1.0000 0.70290  0.40790  0.49850  Biso   1.000  C
  C269     1.0000 0.75360  0.40340  0.55810  Biso   1.000  C
  C270     1.0000 0.71880  0.27440  0.53370  Biso   1.000  C
  C271     1.0000 0.96470  0.55340  0.67280  Biso   1.000  C
  H181     1.0000 0.96120  0.60870  0.65700  Biso   1.000  H
  C272     1.0000 0.99470  0.49040  0.66990  Biso   1.000  C
  H182     1.0000 0.01070  0.50100  0.65100  Biso   1.000  H
  C273     1.0000 0.00190  0.41160  0.69420  Biso   1.000  C
  C274     1.0000 0.97790  0.39770  0.72100  Biso   1.000  C
  H183     1.0000 0.98170  0.34410  0.73790  Biso   1.000  H
  C275     1.0000 0.94770  0.46460  0.72280  Biso   1.000  C
  H184     1.0000 0.93200  0.45770  0.74230  Biso   1.000  H
  C276     1.0000 0.12190  0.36610  0.57190  Biso   1.000  C
  H185     1.0000 0.11180  0.39900  0.54690  Biso   1.000  H
  C277     1.0000 0.09730  0.36160  0.60120  Biso   1.000  C
  H186     1.0000 0.07340  0.39970  0.59790  Biso   1.000  H
  C278     1.0000 0.10880  0.30230  0.63350  Biso   1.000  C
  C279     1.0000 0.14520  0.25460  0.63870  Biso   1.000  C
  H187     1.0000 0.15360  0.21160  0.66060  Biso   1.000  H
  C280     1.0000 0.16960  0.26900  0.61240  Biso   1.000  C
  H188     1.0000 0.19560  0.23840  0.61740  Biso   1.000  H
  C281     1.0000 0.05220  0.02370  0.78440  Biso   1.000  C
  H189     1.0000 0.03100  0.00190  0.79610  Biso   1.000  H
  C282     1.0000 0.04390  0.09800  0.75880  Biso   1.000  C
  H190     1.0000 0.01770  0.12810  0.75310  Biso   1.000  H
  C283     1.0000 0.07470  0.12930  0.74120  Biso   1.000  C
  C284     1.0000 0.11280  0.08170  0.75050  Biso   1.000  C
  H191     1.0000 0.13400  0.10010  0.73830  Biso   1.000  H
  C285     1.0000 0.11900  0.00900  0.77710  Biso   1.000  C
  H192     1.0000 0.14520  0.97890  0.78380  Biso   1.000  H
  C286     1.0000 0.03360  0.34170  0.69100  Biso   1.000  C
  C287     1.0000 0.08260  0.29120  0.66250  Biso   1.000  C
  C288     1.0000 0.06700  0.20800  0.71300  Biso   1.000  C
  N73      1.0000 0.63220  0.44350  0.88830  Biso   1.000  N
  N74      1.0000 0.70030  0.01310  0.03560  Biso   1.000  N
  N75      1.0000 0.84540  0.45260  0.14480  Biso   1.000  N
  N76      1.0000 0.69050  0.67530  0.99810  Biso   1.000  N
  N77      1.0000 0.74570  0.68070  0.05970  Biso   1.000  N
  N78      1.0000 0.72870  0.53880  0.02240  Biso   1.000  N
  N79      1.0000 0.65910  0.16900  0.07780  Biso   1.000  N
  N80      1.0000 0.60260  0.51940  0.29420  Biso   1.000  N
  N81      1.0000 0.43990  0.96900  0.19410  Biso   1.000  N
  N82      1.0000 0.59600  0.28110  0.18680  Biso   1.000  N
  N83      1.0000 0.54200  0.23350  0.21630  Biso   1.000  N
  N84      1.0000 0.55490  0.14900  0.16070  Biso   1.000  N
  N85      1.0000 0.63930  0.55190  0.38990  Biso   1.000  N
  N86      1.0000 0.84490  0.54530  0.64860  Biso   1.000  N
  N87      1.0000 0.70430  0.98270  0.54200  Biso   1.000  N
  N88      1.0000 0.73120  0.45400  0.52560  Biso   1.000  N
  N89      1.0000 0.74750  0.31470  0.56270  Biso   1.000  N
  N90      1.0000 0.69420  0.31650  0.50090  Biso   1.000  N
  N91      1.0000 0.94060  0.53800  0.69740  Biso   1.000  N
  N92      1.0000 0.15760  0.32510  0.57970  Biso   1.000  N
  N93      1.0000 0.08990  0.97870  0.79410  Biso   1.000  N
  N94      1.0000 0.05450  0.35520  0.66300  Biso   1.000  N
  N95      1.0000 0.09100  0.21500  0.68680  Biso   1.000  N
  N96      1.0000 0.03890  0.27040  0.71690  Biso   1.000  N
  Zn34     1.0000 0.60290  0.37220  0.83554  Biso   1.000  Zn
  Cl67     1.0000 0.54200  0.32560  0.84350  Biso   1.000  Cl
  Cl68     1.0000 0.64910  0.28130  0.81830  Biso   1.000  Cl
  Zn35     1.0000 0.69365  0.15440  0.03640  Biso   1.000  Zn
  Cl69     1.0000 0.65780  0.19060  0.97410  Biso   1.000  Cl
  Cl70     1.0000 0.75507  0.21680  0.06560  Biso   1.000  Cl
  Zn36     1.0000 0.88950  0.38530  0.18926  Biso   1.000  Zn
  Cl71     1.0000 0.90170  0.25150  0.16220  Biso   1.000  Cl
  Cl72     1.0000 0.86970  0.40420  0.24660  Biso   1.000  Cl
  Zn37     1.0000 0.62175  0.62526  0.33617  Biso   1.000  Zn
  Cl73     1.0000 0.56710  0.71140  0.33459  Biso   1.000  Cl
  Cl74     1.0000 0.68241  0.67930  0.32831  Biso   1.000  Cl
  Zn38     1.0000 0.88826  0.61583  0.69442  Biso   1.000  Zn
  Cl75     1.0000 0.87056  0.58400  0.75159  Biso   1.000  Cl
  Cl76     1.0000 0.89643  0.75160  0.66637  Biso   1.000  Cl
  Zn39     1.0000 0.19959  0.34050  0.54561  Biso   1.000  Zn
  Cl77     1.0000 0.25950  0.28310  0.58230  Biso   1.000  Cl
  Cl78     1.0000 0.17090  0.29810  0.48240  Biso   1.000  Cl
  Zn40     1.0000 0.58640  0.37030  0.84440  Biso   1.000  Zn
  Cl79     1.0000 0.52300  0.33800  0.85000  Biso   1.000  Cl
  Cl80     1.0000 0.62800  0.26300  0.82900  Biso   1.000  Cl
  Zn41     1.0000 0.69990  0.15800  0.04200  Biso   1.000  Zn
  Cl81     1.0000 0.67400  0.20100  0.97800  Biso   1.000  Cl
  Cl82     1.0000 0.75400  0.20300  0.09300  Biso   1.000  Cl
  Zn42     1.0000 0.88300  0.37600  0.19310  Biso   1.000  Zn
  Cl83     1.0000 0.89100  0.25300  0.16200  Biso   1.000  Cl
  Cl84     1.0000 0.86500  0.37500  0.23800  Biso   1.000  Cl
  Zn43     1.0000 0.59180  0.62130  0.34120  Biso   1.000  Zn
  Cl85     1.0000 0.53280  0.65100  0.35720  Biso   1.000  Cl
  Cl86     1.0000 0.63660  0.72000  0.32220  Biso   1.000  Cl
  Zn44     1.0000 0.18380  0.33770  0.52940  Biso   1.000  Zn
  Cl87     1.0000 0.14400  0.31310  0.46780  Biso   1.000  Cl
  Cl88     1.0000 0.24280  0.26660  0.55490  Biso   1.000  Cl
