data_image0
_cell_length_a       35.411
_cell_length_b       35.411
_cell_length_c       45.691
_cell_angle_alpha    90
_cell_angle_beta     90
_cell_angle_gamma    120

_symmetry_space_group_name_H-M    "P 1"
_symmetry_int_tables_number       1

loop_
  _symmetry_equiv_pos_as_xyz
  'x, y, z'

loop_
  _atom_site_label
  _atom_site_occupancy
  _atom_site_fract_x
  _atom_site_fract_y
  _atom_site_fract_z
  _atom_site_thermal_displace_type
  _atom_site_B_iso_or_equiv
  _atom_site_type_symbol
  Ni1      1.0000 0.56085  0.02016  0.05111  Biso   1.000  Ni
  Ni2      1.0000 0.45932  0.02018  0.05110  Biso   1.000  Ni
  O1       1.0000 0.51875  0.03761  0.03592  Biso   1.000  O
  C1       1.0000 0.21070  0.78890  0.11797  Biso   1.000  C
  C2       1.0000 0.18060  0.75216  0.10264  Biso   1.000  C
  H1       1.0000 0.15540  0.73160  0.11220  Biso   1.000  H
  C3       1.0000 0.18640  0.74493  0.07392  Biso   1.000  C
  C4       1.0000 0.22380  0.77599  0.05905  Biso   1.000  C
  H2       1.0000 0.22780  0.77190  0.03940  Biso   1.000  H
  C5       1.0000 0.25510  0.81329  0.07393  Biso   1.000  C
  C6       1.0000 0.24800  0.81937  0.10261  Biso   1.000  C
  H3       1.0000 0.26850  0.84450  0.11220  Biso   1.000  H
  C7       1.0000 0.20250  0.79752  0.14793  Biso   1.000  C
  C8       1.0000 0.16020  0.78020  0.15890  Biso   1.000  C
  H4       1.0000 0.13700  0.76310  0.14660  Biso   1.000  H
  C9       1.0000 0.15100  0.78710  0.18690  Biso   1.000  C
  H5       1.0000 0.12240  0.77470  0.19330  Biso   1.000  H
  C10      1.0000 0.21240  0.84890  0.18690  Biso   1.000  C
  H6       1.0000 0.22410  0.87760  0.19320  Biso   1.000  H
  C11      1.0000 0.22020  0.83990  0.15900  Biso   1.000  C
  H7       1.0000 0.23820  0.86310  0.14690  Biso   1.000  H
  C12      1.0000 0.18633  0.81386  0.20593  Biso   1.000  C
  C13      1.0000 0.29390  0.84709  0.05727  Biso   1.000  C
  C14      1.0000 0.29060  0.85484  0.02863  Biso   1.000  C
  H8       1.0000 0.26400  0.83840  0.01920  Biso   1.000  H
  C15      1.0000 0.32610  0.88658  0.01266  Biso   1.000  C
  H9       1.0000 0.32290  0.89210  0.99320  Biso   1.000  H
  C16      1.0000 0.36645  0.90980  0.02677  Biso   1.000  C
  C17      1.0000 0.37020  0.90201  0.05545  Biso   1.000  C
  H10      1.0000 0.39700  0.91780  0.06480  Biso   1.000  H
  C18      1.0000 0.33390  0.87022  0.07128  Biso   1.000  C
  H11      1.0000 0.33680  0.86480  0.09080  Biso   1.000  H
  C19      1.0000 0.15320  0.70615  0.05739  Biso   1.000  C
  C20      1.0000 0.14520  0.70950  0.02861  Biso   1.000  C
  H12      1.0000 0.16130  0.73610  0.01920  Biso   1.000  H
  C21      1.0000 0.11310  0.67370  0.01266  Biso   1.000  C
  H13      1.0000 0.10750  0.67690  0.99320  Biso   1.000  H
  C22      1.0000 0.09004  0.63347  0.02671  Biso   1.000  C
  C23      1.0000 0.09790  0.62975  0.05550  Biso   1.000  C
  H14      1.0000 0.08210  0.60290  0.06480  Biso   1.000  H
  C24      1.0000 0.12960  0.66622  0.07127  Biso   1.000  C
  H15      1.0000 0.13460  0.66330  0.09090  Biso   1.000  H
  C25      1.0000 0.40425  0.94330  0.00894  Biso   1.000  C
  O2       1.0000 0.39774  0.94659  0.98297  Biso   1.000  O
  O3       1.0000 0.44099  0.96516  0.02241  Biso   1.000  O
  C26      1.0000 0.05676  0.59567  0.00889  Biso   1.000  C
  O4       1.0000 0.05344  0.60219  0.98290  Biso   1.000  O
  O5       1.0000 0.03479  0.55900  0.02245  Biso   1.000  O
  C27      1.0000 0.17661  0.82343  0.23585  Biso   1.000  C
  O6       1.0000 0.20468  0.85882  0.24717  Biso   1.000  O
  O7       1.0000 0.14118  0.79540  0.24701  Biso   1.000  O
  C28      1.0000 0.60380  0.77310  0.19560  Biso   1.000  C
  C29      1.0000 0.58540  0.76450  0.16780  Biso   1.000  C
  C30      1.0000 0.58620  0.82180  0.16760  Biso   1.000  C
  C31      1.0000 0.60390  0.83100  0.19510  Biso   1.000  C
  H16      1.0000 0.59930  0.74990  0.20750  Biso   1.000  H
  H17      1.0000 0.56620  0.73580  0.16250  Biso   1.000  H
  H18      1.0000 0.56790  0.83220  0.16190  Biso   1.000  H
  H19      1.0000 0.59940  0.84980  0.20690  Biso   1.000  H
  Ni3      1.0000 0.22752  0.35349  0.38444  Biso   1.000  Ni
  Ni4      1.0000 0.12599  0.35351  0.38444  Biso   1.000  Ni
  O8       1.0000 0.18542  0.37094  0.36925  Biso   1.000  O
  C32      1.0000 0.87737  0.12223  0.45130  Biso   1.000  C
  C33      1.0000 0.84727  0.08549  0.43597  Biso   1.000  C
  H20      1.0000 0.82207  0.06493  0.44553  Biso   1.000  H
  C34      1.0000 0.85307  0.07826  0.40725  Biso   1.000  C
  C35      1.0000 0.89047  0.10932  0.39238  Biso   1.000  C
  H21      1.0000 0.89447  0.10523  0.37273  Biso   1.000  H
  C36      1.0000 0.92177  0.14662  0.40726  Biso   1.000  C
  C37      1.0000 0.91467  0.15270  0.43594  Biso   1.000  C
  H22      1.0000 0.93517  0.17783  0.44553  Biso   1.000  H
  C38      1.0000 0.86917  0.13085  0.48126  Biso   1.000  C
  C39      1.0000 0.82687  0.11353  0.49223  Biso   1.000  C
  H23      1.0000 0.80367  0.09643  0.47993  Biso   1.000  H
  C40      1.0000 0.81767  0.12043  0.52023  Biso   1.000  C
  H24      1.0000 0.78907  0.10803  0.52663  Biso   1.000  H
  C41      1.0000 0.87907  0.18223  0.52023  Biso   1.000  C
  H25      1.0000 0.89077  0.21093  0.52653  Biso   1.000  H
  C42      1.0000 0.88687  0.17323  0.49233  Biso   1.000  C
  H26      1.0000 0.90487  0.19643  0.48023  Biso   1.000  H
  C43      1.0000 0.85300  0.14719  0.53926  Biso   1.000  C
  C44      1.0000 0.96057  0.18042  0.39060  Biso   1.000  C
  C45      1.0000 0.95727  0.18817  0.36196  Biso   1.000  C
  H27      1.0000 0.93067  0.17173  0.35253  Biso   1.000  H
  C46      1.0000 0.99277  0.21991  0.34599  Biso   1.000  C
  H28      1.0000 0.98957  0.22543  0.32653  Biso   1.000  H
  C47      1.0000 0.03312  0.24313  0.36010  Biso   1.000  C
  C48      1.0000 0.03687  0.23534  0.38878  Biso   1.000  C
  H29      1.0000 0.06367  0.25113  0.39813  Biso   1.000  H
  C49      1.0000 0.00057  0.20355  0.40461  Biso   1.000  C
  H30      1.0000 0.00347  0.19813  0.42413  Biso   1.000  H
  C50      1.0000 0.81987  0.03948  0.39072  Biso   1.000  C
  C51      1.0000 0.81187  0.04283  0.36194  Biso   1.000  C
  H31      1.0000 0.82797  0.06943  0.35253  Biso   1.000  H
  C52      1.0000 0.77977  0.00703  0.34599  Biso   1.000  C
  H32      1.0000 0.77417  0.01023  0.32653  Biso   1.000  H
  C53      1.0000 0.75671  0.96680  0.36004  Biso   1.000  C
  C54      1.0000 0.76457  0.96308  0.38883  Biso   1.000  C
  H33      1.0000 0.74877  0.93623  0.39813  Biso   1.000  H
  C55      1.0000 0.79627  0.99955  0.40460  Biso   1.000  C
  H34      1.0000 0.80127  0.99663  0.42423  Biso   1.000  H
  C56      1.0000 0.07092  0.27663  0.34227  Biso   1.000  C
  O9       1.0000 0.06441  0.27992  0.31630  Biso   1.000  O
  O10      1.0000 0.10766  0.29849  0.35574  Biso   1.000  O
  C57      1.0000 0.72343  0.92900  0.34222  Biso   1.000  C
  O11      1.0000 0.72011  0.93552  0.31623  Biso   1.000  O
  O12      1.0000 0.70146  0.89233  0.35578  Biso   1.000  O
  C58      1.0000 0.84328  0.15676  0.56918  Biso   1.000  C
  O13      1.0000 0.87135  0.19215  0.58050  Biso   1.000  O
  O14      1.0000 0.80785  0.12873  0.58034  Biso   1.000  O
  C59      1.0000 0.27047  0.10643  0.52893  Biso   1.000  C
  C60      1.0000 0.25207  0.09783  0.50113  Biso   1.000  C
  C61      1.0000 0.25287  0.15513  0.50093  Biso   1.000  C
  C62      1.0000 0.27057  0.16433  0.52843  Biso   1.000  C
  H35      1.0000 0.26597  0.08323  0.54083  Biso   1.000  H
  H36      1.0000 0.23287  0.06913  0.49583  Biso   1.000  H
  H37      1.0000 0.23457  0.16553  0.49523  Biso   1.000  H
  H38      1.0000 0.26607  0.18313  0.54023  Biso   1.000  H
  Ni5      1.0000 0.89418  0.68683  0.71778  Biso   1.000  Ni
  Ni6      1.0000 0.79265  0.68685  0.71777  Biso   1.000  Ni
  O15      1.0000 0.85208  0.70428  0.70259  Biso   1.000  O
  C63      1.0000 0.54403  0.45557  0.78464  Biso   1.000  C
  C64      1.0000 0.51393  0.41883  0.76931  Biso   1.000  C
  H39      1.0000 0.48873  0.39827  0.77887  Biso   1.000  H
  C65      1.0000 0.51973  0.41160  0.74059  Biso   1.000  C
  C66      1.0000 0.55713  0.44266  0.72572  Biso   1.000  C
  H40      1.0000 0.56113  0.43857  0.70607  Biso   1.000  H
  C67      1.0000 0.58843  0.47996  0.74060  Biso   1.000  C
  C68      1.0000 0.58133  0.48604  0.76928  Biso   1.000  C
  H41      1.0000 0.60183  0.51117  0.77887  Biso   1.000  H
  C69      1.0000 0.53583  0.46419  0.81460  Biso   1.000  C
  C70      1.0000 0.49353  0.44687  0.82557  Biso   1.000  C
  H42      1.0000 0.47033  0.42977  0.81327  Biso   1.000  H
  C71      1.0000 0.48433  0.45377  0.85357  Biso   1.000  C
  H43      1.0000 0.45573  0.44137  0.85997  Biso   1.000  H
  C72      1.0000 0.54573  0.51557  0.85357  Biso   1.000  C
  H44      1.0000 0.55743  0.54427  0.85987  Biso   1.000  H
  C73      1.0000 0.55353  0.50657  0.82567  Biso   1.000  C
  H45      1.0000 0.57153  0.52977  0.81357  Biso   1.000  H
  C74      1.0000 0.51966  0.48053  0.87260  Biso   1.000  C
  C75      1.0000 0.62723  0.51376  0.72394  Biso   1.000  C
  C76      1.0000 0.62393  0.52151  0.69530  Biso   1.000  C
  H46      1.0000 0.59733  0.50507  0.68587  Biso   1.000  H
  C77      1.0000 0.65943  0.55325  0.67933  Biso   1.000  C
  H47      1.0000 0.65623  0.55877  0.65987  Biso   1.000  H
  C78      1.0000 0.69978  0.57647  0.69344  Biso   1.000  C
  C79      1.0000 0.70353  0.56868  0.72212  Biso   1.000  C
  H48      1.0000 0.73033  0.58447  0.73147  Biso   1.000  H
  C80      1.0000 0.66723  0.53689  0.73795  Biso   1.000  C
  H49      1.0000 0.67013  0.53147  0.75747  Biso   1.000  H
  C81      1.0000 0.48653  0.37282  0.72406  Biso   1.000  C
  C82      1.0000 0.47853  0.37617  0.69528  Biso   1.000  C
  H50      1.0000 0.49463  0.40277  0.68587  Biso   1.000  H
  C83      1.0000 0.44643  0.34037  0.67933  Biso   1.000  C
  H51      1.0000 0.44083  0.34357  0.65987  Biso   1.000  H
  C84      1.0000 0.42337  0.30014  0.69338  Biso   1.000  C
  C85      1.0000 0.43123  0.29642  0.72217  Biso   1.000  C
  H52      1.0000 0.41543  0.26957  0.73147  Biso   1.000  H
  C86      1.0000 0.46293  0.33289  0.73794  Biso   1.000  C
  H53      1.0000 0.46793  0.32997  0.75757  Biso   1.000  H
  C87      1.0000 0.73758  0.60997  0.67561  Biso   1.000  C
  O16      1.0000 0.73107  0.61326  0.64964  Biso   1.000  O
  O17      1.0000 0.77432  0.63183  0.68908  Biso   1.000  O
  C88      1.0000 0.39009  0.26234  0.67556  Biso   1.000  C
  O18      1.0000 0.38677  0.26886  0.64957  Biso   1.000  O
  O19      1.0000 0.36812  0.22567  0.68912  Biso   1.000  O
  C89      1.0000 0.50994  0.49010  0.90252  Biso   1.000  C
  O20      1.0000 0.53801  0.52549  0.91384  Biso   1.000  O
  O21      1.0000 0.47451  0.46207  0.91368  Biso   1.000  O
  C90      1.0000 0.93713  0.43977  0.86227  Biso   1.000  C
  C91      1.0000 0.91873  0.43117  0.83447  Biso   1.000  C
  C92      1.0000 0.91953  0.48847  0.83427  Biso   1.000  C
  C93      1.0000 0.93723  0.49767  0.86177  Biso   1.000  C
  H54      1.0000 0.93263  0.41657  0.87417  Biso   1.000  H
  H55      1.0000 0.89953  0.40247  0.82917  Biso   1.000  H
  H56      1.0000 0.90123  0.49887  0.82857  Biso   1.000  H
  H57      1.0000 0.93273  0.51647  0.87357  Biso   1.000  H
  Ni7      1.0000 0.97984  0.54069  0.05111  Biso   1.000  Ni
  Ni8      1.0000 0.97982  0.43914  0.05110  Biso   1.000  Ni
  O22      1.0000 0.96239  0.48114  0.03592  Biso   1.000  O
  C94      1.0000 0.21110  0.42180  0.11797  Biso   1.000  C
  C95      1.0000 0.24784  0.42844  0.10264  Biso   1.000  C
  H58      1.0000 0.26840  0.42380  0.11220  Biso   1.000  H
  C96      1.0000 0.25507  0.44147  0.07392  Biso   1.000  C
  C97      1.0000 0.22401  0.44781  0.05905  Biso   1.000  C
  H59      1.0000 0.22810  0.45590  0.03940  Biso   1.000  H
  C98      1.0000 0.18671  0.44181  0.07393  Biso   1.000  C
  C99      1.0000 0.18063  0.42863  0.10261  Biso   1.000  C
  H60      1.0000 0.15550  0.42400  0.11220  Biso   1.000  H
  C100     1.0000 0.20248  0.40498  0.14793  Biso   1.000  C
  C101     1.0000 0.21980  0.38000  0.15890  Biso   1.000  C
  H61      1.0000 0.23690  0.37390  0.14660  Biso   1.000  H
  C102     1.0000 0.21290  0.36390  0.18690  Biso   1.000  C
  H62      1.0000 0.22530  0.34770  0.19330  Biso   1.000  H
  C103     1.0000 0.15110  0.36350  0.18690  Biso   1.000  C
  H63      1.0000 0.12240  0.34650  0.19320  Biso   1.000  H
  C104     1.0000 0.16010  0.38030  0.15900  Biso   1.000  C
  H64      1.0000 0.13690  0.37510  0.14690  Biso   1.000  H
  C105     1.0000 0.18614  0.37247  0.20593  Biso   1.000  C
  C106     1.0000 0.15291  0.44681  0.05727  Biso   1.000  C
  C107     1.0000 0.14516  0.43576  0.02863  Biso   1.000  C
  H65      1.0000 0.16160  0.42560  0.01920  Biso   1.000  H
  C108     1.0000 0.11342  0.43952  0.01266  Biso   1.000  C
  H66      1.0000 0.10790  0.43080  0.99320  Biso   1.000  H
  C109     1.0000 0.09020  0.45665  0.02677  Biso   1.000  C
  C110     1.0000 0.09799  0.46819  0.05545  Biso   1.000  C
  H67      1.0000 0.08220  0.47920  0.06480  Biso   1.000  H
  C111     1.0000 0.12978  0.46368  0.07128  Biso   1.000  C
  H68      1.0000 0.13520  0.47200  0.09080  Biso   1.000  H
  C112     1.0000 0.29385  0.44705  0.05739  Biso   1.000  C
  C113     1.0000 0.29050  0.43570  0.02861  Biso   1.000  C
  H69      1.0000 0.26390  0.42520  0.01920  Biso   1.000  H
  C114     1.0000 0.32630  0.43940  0.01266  Biso   1.000  C
  H70      1.0000 0.32310  0.43060  0.99320  Biso   1.000  H
  C115     1.0000 0.36653  0.45657  0.02671  Biso   1.000  C
  C116     1.0000 0.37025  0.46815  0.05550  Biso   1.000  C
  H71      1.0000 0.39710  0.47920  0.06480  Biso   1.000  H
  C117     1.0000 0.33378  0.46338  0.07127  Biso   1.000  C
  H72      1.0000 0.33670  0.47130  0.09090  Biso   1.000  H
  C118     1.0000 0.05670  0.46095  0.00894  Biso   1.000  C
  O23      1.0000 0.05341  0.45115  0.98297  Biso   1.000  O
  O24      1.0000 0.03484  0.47583  0.02241  Biso   1.000  O
  C119     1.0000 0.40433  0.46109  0.00889  Biso   1.000  C
  O25      1.0000 0.39781  0.45125  0.98290  Biso   1.000  O
  O26      1.0000 0.44100  0.47579  0.02245  Biso   1.000  O
  C120     1.0000 0.17657  0.35318  0.23585  Biso   1.000  C
  O27      1.0000 0.14118  0.34586  0.24717  Biso   1.000  O
  O28      1.0000 0.20460  0.34578  0.24701  Biso   1.000  O
  C121     1.0000 0.22690  0.83070  0.19560  Biso   1.000  C
  C122     1.0000 0.23550  0.82090  0.16780  Biso   1.000  C
  C123     1.0000 0.17820  0.76440  0.16760  Biso   1.000  C
  C124     1.0000 0.16900  0.77290  0.19510  Biso   1.000  C
  H73      1.0000 0.25010  0.84940  0.20750  Biso   1.000  H
  H74      1.0000 0.26420  0.83040  0.16250  Biso   1.000  H
  H75      1.0000 0.16780  0.73570  0.16190  Biso   1.000  H
  H76      1.0000 0.15020  0.74960  0.20690  Biso   1.000  H
  Ni9      1.0000 0.64651  0.87402  0.38444  Biso   1.000  Ni
  Ni10     1.0000 0.64649  0.77247  0.38444  Biso   1.000  Ni
  O29      1.0000 0.62906  0.81447  0.36925  Biso   1.000  O
  C125     1.0000 0.87777  0.75513  0.45130  Biso   1.000  C
  C126     1.0000 0.91451  0.76177  0.43597  Biso   1.000  C
  H77      1.0000 0.93507  0.75713  0.44553  Biso   1.000  H
  C127     1.0000 0.92174  0.77480  0.40725  Biso   1.000  C
  C128     1.0000 0.89068  0.78114  0.39238  Biso   1.000  C
  H78      1.0000 0.89477  0.78923  0.37273  Biso   1.000  H
  C129     1.0000 0.85338  0.77514  0.40726  Biso   1.000  C
  C130     1.0000 0.84730  0.76196  0.43594  Biso   1.000  C
  H79      1.0000 0.82217  0.75733  0.44553  Biso   1.000  H
  C131     1.0000 0.86915  0.73831  0.48126  Biso   1.000  C
  C132     1.0000 0.88647  0.71333  0.49223  Biso   1.000  C
  H80      1.0000 0.90357  0.70723  0.47993  Biso   1.000  H
  C133     1.0000 0.87957  0.69723  0.52023  Biso   1.000  C
  H81      1.0000 0.89197  0.68103  0.52663  Biso   1.000  H
  C134     1.0000 0.81777  0.69683  0.52023  Biso   1.000  C
  H82      1.0000 0.78907  0.67983  0.52653  Biso   1.000  H
  C135     1.0000 0.82677  0.71363  0.49233  Biso   1.000  C
  H83      1.0000 0.80357  0.70843  0.48023  Biso   1.000  H
  C136     1.0000 0.85281  0.70580  0.53926  Biso   1.000  C
  C137     1.0000 0.81958  0.78014  0.39060  Biso   1.000  C
  C138     1.0000 0.81183  0.76909  0.36196  Biso   1.000  C
  H84      1.0000 0.82827  0.75893  0.35253  Biso   1.000  H
  C139     1.0000 0.78009  0.77285  0.34599  Biso   1.000  C
  H85      1.0000 0.77457  0.76413  0.32653  Biso   1.000  H
  C140     1.0000 0.75687  0.78998  0.36010  Biso   1.000  C
  C141     1.0000 0.76466  0.80152  0.38878  Biso   1.000  C
  H86      1.0000 0.74887  0.81253  0.39813  Biso   1.000  H
  C142     1.0000 0.79645  0.79701  0.40461  Biso   1.000  C
  H87      1.0000 0.80187  0.80533  0.42413  Biso   1.000  H
  C143     1.0000 0.96052  0.78038  0.39072  Biso   1.000  C
  C144     1.0000 0.95717  0.76903  0.36194  Biso   1.000  C
  H88      1.0000 0.93057  0.75853  0.35253  Biso   1.000  H
  C145     1.0000 0.99297  0.77273  0.34599  Biso   1.000  C
  H89      1.0000 0.98977  0.76393  0.32653  Biso   1.000  H
  C146     1.0000 0.03320  0.78990  0.36004  Biso   1.000  C
  C147     1.0000 0.03692  0.80148  0.38883  Biso   1.000  C
  H90      1.0000 0.06377  0.81253  0.39813  Biso   1.000  H
  C148     1.0000 0.00045  0.79671  0.40460  Biso   1.000  C
  H91      1.0000 0.00337  0.80463  0.42423  Biso   1.000  H
  C149     1.0000 0.72337  0.79428  0.34227  Biso   1.000  C
  O30      1.0000 0.72008  0.78448  0.31630  Biso   1.000  O
  O31      1.0000 0.70151  0.80916  0.35574  Biso   1.000  O
  C150     1.0000 0.07100  0.79442  0.34222  Biso   1.000  C
  O32      1.0000 0.06448  0.78458  0.31623  Biso   1.000  O
  O33      1.0000 0.10767  0.80912  0.35578  Biso   1.000  O
  C151     1.0000 0.84324  0.68651  0.56918  Biso   1.000  C
  O34      1.0000 0.80785  0.67919  0.58050  Biso   1.000  O
  O35      1.0000 0.87127  0.67911  0.58034  Biso   1.000  O
  C152     1.0000 0.89357  0.16403  0.52893  Biso   1.000  C
  C153     1.0000 0.90217  0.15423  0.50113  Biso   1.000  C
  C154     1.0000 0.84487  0.09773  0.50093  Biso   1.000  C
  C155     1.0000 0.83567  0.10623  0.52843  Biso   1.000  C
  H92      1.0000 0.91677  0.18273  0.54083  Biso   1.000  H
  H93      1.0000 0.93087  0.16373  0.49583  Biso   1.000  H
  H94      1.0000 0.83447  0.06903  0.49523  Biso   1.000  H
  H95      1.0000 0.81687  0.08293  0.54023  Biso   1.000  H
  Ni11     1.0000 0.31317  0.20736  0.71778  Biso   1.000  Ni
  Ni12     1.0000 0.31315  0.10581  0.71777  Biso   1.000  Ni
  O36      1.0000 0.29572  0.14781  0.70259  Biso   1.000  O
  C156     1.0000 0.54443  0.08847  0.78464  Biso   1.000  C
  C157     1.0000 0.58117  0.09511  0.76931  Biso   1.000  C
  H96      1.0000 0.60173  0.09047  0.77887  Biso   1.000  H
  C158     1.0000 0.58840  0.10814  0.74059  Biso   1.000  C
  C159     1.0000 0.55734  0.11448  0.72572  Biso   1.000  C
  H97      1.0000 0.56143  0.12257  0.70607  Biso   1.000  H
  C160     1.0000 0.52004  0.10848  0.74060  Biso   1.000  C
  C161     1.0000 0.51396  0.09530  0.76928  Biso   1.000  C
  H98      1.0000 0.48883  0.09067  0.77887  Biso   1.000  H
  C162     1.0000 0.53581  0.07165  0.81460  Biso   1.000  C
  C163     1.0000 0.55313  0.04667  0.82557  Biso   1.000  C
  H99      1.0000 0.57023  0.04057  0.81327  Biso   1.000  H
  C164     1.0000 0.54623  0.03057  0.85357  Biso   1.000  C
  H100     1.0000 0.55863  0.01437  0.85997  Biso   1.000  H
  C165     1.0000 0.48443  0.03017  0.85357  Biso   1.000  C
  H101     1.0000 0.45573  0.01317  0.85987  Biso   1.000  H
  C166     1.0000 0.49343  0.04697  0.82567  Biso   1.000  C
  H102     1.0000 0.47023  0.04177  0.81357  Biso   1.000  H
  C167     1.0000 0.51947  0.03914  0.87260  Biso   1.000  C
  C168     1.0000 0.48624  0.11348  0.72394  Biso   1.000  C
  C169     1.0000 0.47849  0.10243  0.69530  Biso   1.000  C
  H103     1.0000 0.49493  0.09227  0.68587  Biso   1.000  H
  C170     1.0000 0.44675  0.10619  0.67933  Biso   1.000  C
  H104     1.0000 0.44123  0.09747  0.65987  Biso   1.000  H
  C171     1.0000 0.42353  0.12332  0.69344  Biso   1.000  C
  C172     1.0000 0.43132  0.13486  0.72212  Biso   1.000  C
  H105     1.0000 0.41553  0.14587  0.73147  Biso   1.000  H
  C173     1.0000 0.46311  0.13035  0.73795  Biso   1.000  C
  H106     1.0000 0.46853  0.13867  0.75747  Biso   1.000  H
  C174     1.0000 0.62718  0.11372  0.72406  Biso   1.000  C
  C175     1.0000 0.62383  0.10237  0.69528  Biso   1.000  C
  H107     1.0000 0.59723  0.09187  0.68587  Biso   1.000  H
  C176     1.0000 0.65963  0.10607  0.67933  Biso   1.000  C
  H108     1.0000 0.65643  0.09727  0.65987  Biso   1.000  H
  C177     1.0000 0.69986  0.12324  0.69338  Biso   1.000  C
  C178     1.0000 0.70358  0.13482  0.72217  Biso   1.000  C
  H109     1.0000 0.73043  0.14587  0.73147  Biso   1.000  H
  C179     1.0000 0.66711  0.13005  0.73794  Biso   1.000  C
  H110     1.0000 0.67003  0.13797  0.75757  Biso   1.000  H
  C180     1.0000 0.39003  0.12762  0.67561  Biso   1.000  C
  O37      1.0000 0.38674  0.11782  0.64964  Biso   1.000  O
  O38      1.0000 0.36817  0.14250  0.68908  Biso   1.000  O
  C181     1.0000 0.73766  0.12776  0.67556  Biso   1.000  C
  O39      1.0000 0.73114  0.11792  0.64957  Biso   1.000  O
  O40      1.0000 0.77433  0.14246  0.68912  Biso   1.000  O
  C182     1.0000 0.50990  0.01985  0.90252  Biso   1.000  C
  O41      1.0000 0.47451  0.01253  0.91384  Biso   1.000  O
  O42      1.0000 0.53793  0.01245  0.91368  Biso   1.000  O
  C183     1.0000 0.56023  0.49737  0.86227  Biso   1.000  C
  C184     1.0000 0.56883  0.48757  0.83447  Biso   1.000  C
  C185     1.0000 0.51153  0.43107  0.83427  Biso   1.000  C
  C186     1.0000 0.50233  0.43957  0.86177  Biso   1.000  C
  H111     1.0000 0.58343  0.51607  0.87417  Biso   1.000  H
  H112     1.0000 0.59753  0.49707  0.82917  Biso   1.000  H
  H113     1.0000 0.50113  0.40237  0.82857  Biso   1.000  H
  H114     1.0000 0.48353  0.41627  0.87357  Biso   1.000  H
  Ni13     1.0000 0.45931  0.43915  0.05111  Biso   1.000  Ni
  Ni14     1.0000 0.56086  0.54068  0.05110  Biso   1.000  Ni
  O43      1.0000 0.51886  0.48125  0.03592  Biso   1.000  O
  C187     1.0000 0.57820  0.78930  0.11797  Biso   1.000  C
  C188     1.0000 0.57156  0.81940  0.10264  Biso   1.000  C
  H115     1.0000 0.57620  0.84460  0.11220  Biso   1.000  H
  C189     1.0000 0.55853  0.81360  0.07392  Biso   1.000  C
  C190     1.0000 0.55219  0.77620  0.05905  Biso   1.000  C
  H116     1.0000 0.54410  0.77220  0.03940  Biso   1.000  H
  C191     1.0000 0.55819  0.74490  0.07393  Biso   1.000  C
  C192     1.0000 0.57137  0.75200  0.10261  Biso   1.000  C
  H117     1.0000 0.57600  0.73150  0.11220  Biso   1.000  H
  C193     1.0000 0.59502  0.79750  0.14793  Biso   1.000  C
  C194     1.0000 0.62000  0.83980  0.15890  Biso   1.000  C
  H118     1.0000 0.62610  0.86300  0.14660  Biso   1.000  H
  C195     1.0000 0.63610  0.84900  0.18690  Biso   1.000  C
  H119     1.0000 0.65230  0.87760  0.19330  Biso   1.000  H
  C196     1.0000 0.63650  0.78760  0.18690  Biso   1.000  C
  H120     1.0000 0.65350  0.77590  0.19320  Biso   1.000  H
  C197     1.0000 0.61970  0.77980  0.15900  Biso   1.000  C
  H121     1.0000 0.62490  0.76180  0.14690  Biso   1.000  H
  C198     1.0000 0.62753  0.81367  0.20593  Biso   1.000  C
  C199     1.0000 0.55319  0.70610  0.05727  Biso   1.000  C
  C200     1.0000 0.56424  0.70940  0.02863  Biso   1.000  C
  H122     1.0000 0.57440  0.73600  0.01920  Biso   1.000  H
  C201     1.0000 0.56048  0.67390  0.01266  Biso   1.000  C
  H123     1.0000 0.56920  0.67710  0.99320  Biso   1.000  H
  C202     1.0000 0.54335  0.63355  0.02677  Biso   1.000  C
  C203     1.0000 0.53181  0.62980  0.05545  Biso   1.000  C
  H124     1.0000 0.52080  0.60300  0.06480  Biso   1.000  H
  C204     1.0000 0.53632  0.66610  0.07128  Biso   1.000  C
  H125     1.0000 0.52800  0.66320  0.09080  Biso   1.000  H
  C205     1.0000 0.55295  0.84680  0.05739  Biso   1.000  C
  C206     1.0000 0.56430  0.85480  0.02861  Biso   1.000  C
  H126     1.0000 0.57480  0.83870  0.01920  Biso   1.000  H
  C207     1.0000 0.56060  0.88690  0.01266  Biso   1.000  C
  H127     1.0000 0.56940  0.89250  0.99320  Biso   1.000  H
  C208     1.0000 0.54343  0.90996  0.02671  Biso   1.000  C
  C209     1.0000 0.53185  0.90210  0.05550  Biso   1.000  C
  H128     1.0000 0.52080  0.91790  0.06480  Biso   1.000  H
  C210     1.0000 0.53662  0.87040  0.07127  Biso   1.000  C
  H129     1.0000 0.52870  0.86540  0.09090  Biso   1.000  H
  C211     1.0000 0.53905  0.59575  0.00894  Biso   1.000  C
  O44      1.0000 0.54885  0.60226  0.98297  Biso   1.000  O
  O45      1.0000 0.52417  0.55901  0.02241  Biso   1.000  O
  C212     1.0000 0.53891  0.94324  0.00889  Biso   1.000  C
  O46      1.0000 0.54875  0.94656  0.98290  Biso   1.000  O
  O47      1.0000 0.52421  0.96521  0.02245  Biso   1.000  O
  C213     1.0000 0.64682  0.82339  0.23585  Biso   1.000  C
  O48      1.0000 0.65414  0.79532  0.24717  Biso   1.000  O
  O49      1.0000 0.65422  0.85882  0.24701  Biso   1.000  O
  C214     1.0000 0.16930  0.39620  0.19560  Biso   1.000  C
  C215     1.0000 0.17910  0.41460  0.16780  Biso   1.000  C
  C216     1.0000 0.23560  0.41380  0.16760  Biso   1.000  C
  C217     1.0000 0.22710  0.39610  0.19510  Biso   1.000  C
  H130     1.0000 0.15060  0.40070  0.20750  Biso   1.000  H
  H131     1.0000 0.16960  0.43380  0.16250  Biso   1.000  H
  H132     1.0000 0.26430  0.43210  0.16190  Biso   1.000  H
  H133     1.0000 0.25040  0.40060  0.20690  Biso   1.000  H
  Ni15     1.0000 0.12598  0.77248  0.38444  Biso   1.000  Ni
  Ni16     1.0000 0.22753  0.87401  0.38444  Biso   1.000  Ni
  O50      1.0000 0.18553  0.81458  0.36925  Biso   1.000  O
  C218     1.0000 0.24487  0.12263  0.45130  Biso   1.000  C
  C219     1.0000 0.23823  0.15273  0.43597  Biso   1.000  C
  H134     1.0000 0.24287  0.17793  0.44553  Biso   1.000  H
  C220     1.0000 0.22520  0.14693  0.40725  Biso   1.000  C
  C221     1.0000 0.21886  0.10953  0.39238  Biso   1.000  C
  H135     1.0000 0.21077  0.10553  0.37273  Biso   1.000  H
  C222     1.0000 0.22486  0.07823  0.40726  Biso   1.000  C
  C223     1.0000 0.23804  0.08533  0.43594  Biso   1.000  C
  H136     1.0000 0.24267  0.06483  0.44553  Biso   1.000  H
  C224     1.0000 0.26169  0.13083  0.48126  Biso   1.000  C
  C225     1.0000 0.28667  0.17313  0.49223  Biso   1.000  C
  H137     1.0000 0.29277  0.19633  0.47993  Biso   1.000  H
  C226     1.0000 0.30277  0.18233  0.52023  Biso   1.000  C
  H138     1.0000 0.31897  0.21093  0.52663  Biso   1.000  H
  C227     1.0000 0.30317  0.12093  0.52023  Biso   1.000  C
  H139     1.0000 0.32017  0.10923  0.52653  Biso   1.000  H
  C228     1.0000 0.28637  0.11313  0.49233  Biso   1.000  C
  H140     1.0000 0.29157  0.09513  0.48023  Biso   1.000  H
  C229     1.0000 0.29420  0.14700  0.53926  Biso   1.000  C
  C230     1.0000 0.21986  0.03943  0.39060  Biso   1.000  C
  C231     1.0000 0.23091  0.04273  0.36196  Biso   1.000  C
  H141     1.0000 0.24107  0.06933  0.35253  Biso   1.000  H
  C232     1.0000 0.22715  0.00723  0.34599  Biso   1.000  C
  H142     1.0000 0.23587  0.01043  0.32653  Biso   1.000  H
  C233     1.0000 0.21002  0.96688  0.36010  Biso   1.000  C
  C234     1.0000 0.19848  0.96313  0.38878  Biso   1.000  C
  H143     1.0000 0.18747  0.93633  0.39813  Biso   1.000  H
  C235     1.0000 0.20299  0.99943  0.40461  Biso   1.000  C
  H144     1.0000 0.19467  0.99653  0.42413  Biso   1.000  H
  C236     1.0000 0.21962  0.18013  0.39072  Biso   1.000  C
  C237     1.0000 0.23097  0.18813  0.36194  Biso   1.000  C
  H145     1.0000 0.24147  0.17203  0.35253  Biso   1.000  H
  C238     1.0000 0.22727  0.22023  0.34599  Biso   1.000  C
  H146     1.0000 0.23607  0.22583  0.32653  Biso   1.000  H
  C239     1.0000 0.21010  0.24329  0.36004  Biso   1.000  C
  C240     1.0000 0.19852  0.23543  0.38883  Biso   1.000  C
  H147     1.0000 0.18747  0.25123  0.39813  Biso   1.000  H
  C241     1.0000 0.20329  0.20373  0.40460  Biso   1.000  C
  H148     1.0000 0.19537  0.19873  0.42423  Biso   1.000  H
  C242     1.0000 0.20572  0.92908  0.34227  Biso   1.000  C
  O51      1.0000 0.21552  0.93559  0.31630  Biso   1.000  O
  O52      1.0000 0.19084  0.89234  0.35574  Biso   1.000  O
  C243     1.0000 0.20558  0.27657  0.34222  Biso   1.000  C
  O53      1.0000 0.21542  0.27989  0.31623  Biso   1.000  O
  O54      1.0000 0.19088  0.29854  0.35578  Biso   1.000  O
  C244     1.0000 0.31349  0.15672  0.56918  Biso   1.000  C
  O55      1.0000 0.32081  0.12865  0.58050  Biso   1.000  O
  O56      1.0000 0.32089  0.19215  0.58034  Biso   1.000  O
  C245     1.0000 0.83597  0.72953  0.52893  Biso   1.000  C
  C246     1.0000 0.84577  0.74793  0.50113  Biso   1.000  C
  C247     1.0000 0.90227  0.74713  0.50093  Biso   1.000  C
  C248     1.0000 0.89377  0.72943  0.52843  Biso   1.000  C
  H149     1.0000 0.81727  0.73403  0.54083  Biso   1.000  H
  H150     1.0000 0.83627  0.76713  0.49583  Biso   1.000  H
  H151     1.0000 0.93097  0.76543  0.49523  Biso   1.000  H
  H152     1.0000 0.91707  0.73393  0.54023  Biso   1.000  H
  Ni17     1.0000 0.79264  0.10582  0.71778  Biso   1.000  Ni
  Ni18     1.0000 0.89419  0.20735  0.71777  Biso   1.000  Ni
  O57      1.0000 0.85219  0.14792  0.70259  Biso   1.000  O
  C249     1.0000 0.91153  0.45597  0.78464  Biso   1.000  C
  C250     1.0000 0.90489  0.48607  0.76931  Biso   1.000  C
  H153     1.0000 0.90953  0.51127  0.77887  Biso   1.000  H
  C251     1.0000 0.89186  0.48027  0.74059  Biso   1.000  C
  C252     1.0000 0.88552  0.44287  0.72572  Biso   1.000  C
  H154     1.0000 0.87743  0.43887  0.70607  Biso   1.000  H
  C253     1.0000 0.89152  0.41157  0.74060  Biso   1.000  C
  C254     1.0000 0.90470  0.41867  0.76928  Biso   1.000  C
  H155     1.0000 0.90933  0.39817  0.77887  Biso   1.000  H
  C255     1.0000 0.92835  0.46417  0.81460  Biso   1.000  C
  C256     1.0000 0.95333  0.50647  0.82557  Biso   1.000  C
  H156     1.0000 0.95943  0.52967  0.81327  Biso   1.000  H
  C257     1.0000 0.96943  0.51567  0.85357  Biso   1.000  C
  H157     1.0000 0.98563  0.54427  0.85997  Biso   1.000  H
  C258     1.0000 0.96983  0.45427  0.85357  Biso   1.000  C
  H158     1.0000 0.98683  0.44257  0.85987  Biso   1.000  H
  C259     1.0000 0.95303  0.44647  0.82567  Biso   1.000  C
  H159     1.0000 0.95823  0.42847  0.81357  Biso   1.000  H
  C260     1.0000 0.96086  0.48034  0.87260  Biso   1.000  C
  C261     1.0000 0.88652  0.37277  0.72394  Biso   1.000  C
  C262     1.0000 0.89757  0.37607  0.69530  Biso   1.000  C
  H160     1.0000 0.90773  0.40267  0.68587  Biso   1.000  H
  C263     1.0000 0.89381  0.34057  0.67933  Biso   1.000  C
  H161     1.0000 0.90253  0.34377  0.65987  Biso   1.000  H
  C264     1.0000 0.87668  0.30022  0.69344  Biso   1.000  C
  C265     1.0000 0.86514  0.29647  0.72212  Biso   1.000  C
  H162     1.0000 0.85413  0.26967  0.73147  Biso   1.000  H
  C266     1.0000 0.86965  0.33277  0.73795  Biso   1.000  C
  H163     1.0000 0.86133  0.32987  0.75747  Biso   1.000  H
  C267     1.0000 0.88628  0.51347  0.72406  Biso   1.000  C
  C268     1.0000 0.89763  0.52147  0.69528  Biso   1.000  C
  H164     1.0000 0.90813  0.50537  0.68587  Biso   1.000  H
  C269     1.0000 0.89393  0.55357  0.67933  Biso   1.000  C
  H165     1.0000 0.90273  0.55917  0.65987  Biso   1.000  H
  C270     1.0000 0.87676  0.57663  0.69338  Biso   1.000  C
  C271     1.0000 0.86518  0.56877  0.72217  Biso   1.000  C
  H166     1.0000 0.85413  0.58457  0.73147  Biso   1.000  H
  C272     1.0000 0.86995  0.53707  0.73794  Biso   1.000  C
  H167     1.0000 0.86203  0.53207  0.75757  Biso   1.000  H
  C273     1.0000 0.87238  0.26242  0.67561  Biso   1.000  C
  O58      1.0000 0.88218  0.26893  0.64964  Biso   1.000  O
  O59      1.0000 0.85750  0.22568  0.68908  Biso   1.000  O
  C274     1.0000 0.87224  0.60991  0.67556  Biso   1.000  C
  O60      1.0000 0.88208  0.61323  0.64957  Biso   1.000  O
  O61      1.0000 0.85754  0.63188  0.68912  Biso   1.000  O
  C275     1.0000 0.98015  0.49006  0.90252  Biso   1.000  C
  O62      1.0000 0.98747  0.46199  0.91384  Biso   1.000  O
  O63      1.0000 0.98755  0.52549  0.91368  Biso   1.000  O
  C276     1.0000 0.50263  0.06287  0.86227  Biso   1.000  C
  C277     1.0000 0.51243  0.08127  0.83447  Biso   1.000  C
  C278     1.0000 0.56893  0.08047  0.83427  Biso   1.000  C
  C279     1.0000 0.56043  0.06277  0.86177  Biso   1.000  C
  H168     1.0000 0.48393  0.06737  0.87417  Biso   1.000  H
  H169     1.0000 0.50293  0.10047  0.82917  Biso   1.000  H
  H170     1.0000 0.59763  0.09877  0.82857  Biso   1.000  H
  H171     1.0000 0.58373  0.06727  0.87357  Biso   1.000  H
  Ni19     1.0000 0.43915  0.97984  0.94889  Biso   1.000  Ni
  Ni20     1.0000 0.54068  0.97982  0.94890  Biso   1.000  Ni
  O64      1.0000 0.48125  0.96239  0.96408  Biso   1.000  O
  C280     1.0000 0.78930  0.21110  0.88203  Biso   1.000  C
  C281     1.0000 0.81940  0.24784  0.89736  Biso   1.000  C
  H172     1.0000 0.84460  0.26840  0.88780  Biso   1.000  H
  C282     1.0000 0.81360  0.25507  0.92608  Biso   1.000  C
  C283     1.0000 0.77620  0.22401  0.94095  Biso   1.000  C
  H173     1.0000 0.77220  0.22810  0.96060  Biso   1.000  H
  C284     1.0000 0.74490  0.18671  0.92607  Biso   1.000  C
  C285     1.0000 0.75200  0.18063  0.89739  Biso   1.000  C
  H174     1.0000 0.73150  0.15550  0.88780  Biso   1.000  H
  C286     1.0000 0.79750  0.20248  0.85207  Biso   1.000  C
  C287     1.0000 0.83980  0.21980  0.84110  Biso   1.000  C
  H175     1.0000 0.86300  0.23690  0.85340  Biso   1.000  H
  C288     1.0000 0.84900  0.21290  0.81310  Biso   1.000  C
  H176     1.0000 0.87760  0.22530  0.80670  Biso   1.000  H
  C289     1.0000 0.78760  0.15110  0.81310  Biso   1.000  C
  H177     1.0000 0.77590  0.12240  0.80680  Biso   1.000  H
  C290     1.0000 0.77980  0.16010  0.84100  Biso   1.000  C
  H178     1.0000 0.76180  0.13690  0.85310  Biso   1.000  H
  C291     1.0000 0.81367  0.18614  0.79407  Biso   1.000  C
  C292     1.0000 0.70610  0.15291  0.94273  Biso   1.000  C
  C293     1.0000 0.70940  0.14516  0.97137  Biso   1.000  C
  H179     1.0000 0.73600  0.16160  0.98080  Biso   1.000  H
  C294     1.0000 0.67390  0.11342  0.98734  Biso   1.000  C
  H180     1.0000 0.67710  0.10790  0.00680  Biso   1.000  H
  C295     1.0000 0.63355  0.09020  0.97323  Biso   1.000  C
  C296     1.0000 0.62980  0.09799  0.94455  Biso   1.000  C
  H181     1.0000 0.60300  0.08220  0.93520  Biso   1.000  H
  C297     1.0000 0.66610  0.12978  0.92872  Biso   1.000  C
  H182     1.0000 0.66320  0.13520  0.90920  Biso   1.000  H
  C298     1.0000 0.84680  0.29385  0.94261  Biso   1.000  C
  C299     1.0000 0.85480  0.29050  0.97139  Biso   1.000  C
  H183     1.0000 0.83870  0.26390  0.98080  Biso   1.000  H
  C300     1.0000 0.88690  0.32630  0.98734  Biso   1.000  C
  H184     1.0000 0.89250  0.32310  0.00680  Biso   1.000  H
  C301     1.0000 0.90996  0.36653  0.97329  Biso   1.000  C
  C302     1.0000 0.90210  0.37025  0.94450  Biso   1.000  C
  H185     1.0000 0.91790  0.39710  0.93520  Biso   1.000  H
  C303     1.0000 0.87040  0.33378  0.92873  Biso   1.000  C
  H186     1.0000 0.86540  0.33670  0.90910  Biso   1.000  H
  C304     1.0000 0.59575  0.05670  0.99106  Biso   1.000  C
  O65      1.0000 0.60226  0.05341  0.01703  Biso   1.000  O
  O66      1.0000 0.55901  0.03484  0.97759  Biso   1.000  O
  C305     1.0000 0.94324  0.40433  0.99111  Biso   1.000  C
  O67      1.0000 0.94656  0.39781  0.01710  Biso   1.000  O
  O68      1.0000 0.96521  0.44100  0.97755  Biso   1.000  O
  C306     1.0000 0.82339  0.17657  0.76415  Biso   1.000  C
  O69      1.0000 0.79532  0.14118  0.75283  Biso   1.000  O
  O70      1.0000 0.85882  0.20460  0.75299  Biso   1.000  O
  C307     1.0000 0.39620  0.22690  0.80440  Biso   1.000  C
  C308     1.0000 0.41460  0.23550  0.83220  Biso   1.000  C
  C309     1.0000 0.41380  0.17820  0.83240  Biso   1.000  C
  C310     1.0000 0.39610  0.16900  0.80490  Biso   1.000  C
  H187     1.0000 0.40070  0.25010  0.79250  Biso   1.000  H
  H188     1.0000 0.43380  0.26420  0.83750  Biso   1.000  H
  H189     1.0000 0.43210  0.16780  0.83810  Biso   1.000  H
  H190     1.0000 0.40060  0.15020  0.79310  Biso   1.000  H
  Ni21     1.0000 0.10582  0.31317  0.28222  Biso   1.000  Ni
  Ni22     1.0000 0.20735  0.31315  0.28223  Biso   1.000  Ni
  O71      1.0000 0.14792  0.29572  0.29741  Biso   1.000  O
  C311     1.0000 0.45597  0.54443  0.21536  Biso   1.000  C
  C312     1.0000 0.48607  0.58117  0.23069  Biso   1.000  C
  H191     1.0000 0.51127  0.60173  0.22113  Biso   1.000  H
  C313     1.0000 0.48027  0.58840  0.25941  Biso   1.000  C
  C314     1.0000 0.44287  0.55734  0.27428  Biso   1.000  C
  H192     1.0000 0.43887  0.56143  0.29393  Biso   1.000  H
  C315     1.0000 0.41157  0.52004  0.25940  Biso   1.000  C
  C316     1.0000 0.41867  0.51396  0.23072  Biso   1.000  C
  H193     1.0000 0.39817  0.48883  0.22113  Biso   1.000  H
  C317     1.0000 0.46417  0.53581  0.18540  Biso   1.000  C
  C318     1.0000 0.50647  0.55313  0.17443  Biso   1.000  C
  H194     1.0000 0.52967  0.57023  0.18673  Biso   1.000  H
  C319     1.0000 0.51567  0.54623  0.14643  Biso   1.000  C
  H195     1.0000 0.54427  0.55863  0.14003  Biso   1.000  H
  C320     1.0000 0.45427  0.48443  0.14643  Biso   1.000  C
  H196     1.0000 0.44257  0.45573  0.14013  Biso   1.000  H
  C321     1.0000 0.44647  0.49343  0.17433  Biso   1.000  C
  H197     1.0000 0.42847  0.47023  0.18643  Biso   1.000  H
  C322     1.0000 0.48034  0.51947  0.12740  Biso   1.000  C
  C323     1.0000 0.37277  0.48624  0.27606  Biso   1.000  C
  C324     1.0000 0.37607  0.47849  0.30470  Biso   1.000  C
  H198     1.0000 0.40267  0.49493  0.31413  Biso   1.000  H
  C325     1.0000 0.34057  0.44675  0.32067  Biso   1.000  C
  H199     1.0000 0.34377  0.44123  0.34013  Biso   1.000  H
  C326     1.0000 0.30022  0.42353  0.30656  Biso   1.000  C
  C327     1.0000 0.29647  0.43132  0.27788  Biso   1.000  C
  H200     1.0000 0.26967  0.41553  0.26853  Biso   1.000  H
  C328     1.0000 0.33277  0.46311  0.26205  Biso   1.000  C
  H201     1.0000 0.32987  0.46853  0.24253  Biso   1.000  H
  C329     1.0000 0.51347  0.62718  0.27594  Biso   1.000  C
  C330     1.0000 0.52147  0.62383  0.30472  Biso   1.000  C
  H202     1.0000 0.50537  0.59723  0.31413  Biso   1.000  H
  C331     1.0000 0.55357  0.65963  0.32067  Biso   1.000  C
  H203     1.0000 0.55917  0.65643  0.34013  Biso   1.000  H
  C332     1.0000 0.57663  0.69986  0.30662  Biso   1.000  C
  C333     1.0000 0.56877  0.70358  0.27783  Biso   1.000  C
  H204     1.0000 0.58457  0.73043  0.26853  Biso   1.000  H
  C334     1.0000 0.53707  0.66711  0.26206  Biso   1.000  C
  H205     1.0000 0.53207  0.67003  0.24243  Biso   1.000  H
  C335     1.0000 0.26242  0.39003  0.32439  Biso   1.000  C
  O72      1.0000 0.26893  0.38674  0.35036  Biso   1.000  O
  O73      1.0000 0.22568  0.36817  0.31092  Biso   1.000  O
  C336     1.0000 0.60991  0.73766  0.32444  Biso   1.000  C
  O74      1.0000 0.61323  0.73114  0.35043  Biso   1.000  O
  O75      1.0000 0.63188  0.77433  0.31088  Biso   1.000  O
  C337     1.0000 0.49006  0.50990  0.09748  Biso   1.000  C
  O76      1.0000 0.46199  0.47451  0.08616  Biso   1.000  O
  O77      1.0000 0.52549  0.53793  0.08632  Biso   1.000  O
  C338     1.0000 0.06287  0.56023  0.13773  Biso   1.000  C
  C339     1.0000 0.08127  0.56883  0.16553  Biso   1.000  C
  C340     1.0000 0.08047  0.51153  0.16573  Biso   1.000  C
  C341     1.0000 0.06277  0.50233  0.13823  Biso   1.000  C
  H206     1.0000 0.06737  0.58343  0.12583  Biso   1.000  H
  H207     1.0000 0.10047  0.59753  0.17083  Biso   1.000  H
  H208     1.0000 0.09877  0.50113  0.17143  Biso   1.000  H
  H209     1.0000 0.06727  0.48353  0.12643  Biso   1.000  H
  Ni23     1.0000 0.77248  0.64651  0.61556  Biso   1.000  Ni
  Ni24     1.0000 0.87401  0.64649  0.61556  Biso   1.000  Ni
  O78      1.0000 0.81458  0.62906  0.63075  Biso   1.000  O
  C342     1.0000 0.12263  0.87777  0.54870  Biso   1.000  C
  C343     1.0000 0.15273  0.91451  0.56403  Biso   1.000  C
  H210     1.0000 0.17793  0.93507  0.55447  Biso   1.000  H
  C344     1.0000 0.14693  0.92174  0.59275  Biso   1.000  C
  C345     1.0000 0.10953  0.89068  0.60762  Biso   1.000  C
  H211     1.0000 0.10553  0.89477  0.62727  Biso   1.000  H
  C346     1.0000 0.07823  0.85338  0.59274  Biso   1.000  C
  C347     1.0000 0.08533  0.84730  0.56406  Biso   1.000  C
  H212     1.0000 0.06483  0.82217  0.55447  Biso   1.000  H
  C348     1.0000 0.13083  0.86915  0.51874  Biso   1.000  C
  C349     1.0000 0.17313  0.88647  0.50777  Biso   1.000  C
  H213     1.0000 0.19633  0.90357  0.52007  Biso   1.000  H
  C350     1.0000 0.18233  0.87957  0.47977  Biso   1.000  C
  H214     1.0000 0.21093  0.89197  0.47337  Biso   1.000  H
  C351     1.0000 0.12093  0.81777  0.47977  Biso   1.000  C
  H215     1.0000 0.10923  0.78907  0.47347  Biso   1.000  H
  C352     1.0000 0.11313  0.82677  0.50767  Biso   1.000  C
  H216     1.0000 0.09513  0.80357  0.51977  Biso   1.000  H
  C353     1.0000 0.14700  0.85281  0.46074  Biso   1.000  C
  C354     1.0000 0.03943  0.81958  0.60940  Biso   1.000  C
  C355     1.0000 0.04273  0.81183  0.63804  Biso   1.000  C
  H217     1.0000 0.06933  0.82827  0.64747  Biso   1.000  H
  C356     1.0000 0.00723  0.78009  0.65401  Biso   1.000  C
  H218     1.0000 0.01043  0.77457  0.67347  Biso   1.000  H
  C357     1.0000 0.96688  0.75687  0.63990  Biso   1.000  C
  C358     1.0000 0.96313  0.76466  0.61122  Biso   1.000  C
  H219     1.0000 0.93633  0.74887  0.60187  Biso   1.000  H
  C359     1.0000 0.99943  0.79645  0.59539  Biso   1.000  C
  H220     1.0000 0.99653  0.80187  0.57587  Biso   1.000  H
  C360     1.0000 0.18013  0.96052  0.60928  Biso   1.000  C
  C361     1.0000 0.18813  0.95717  0.63806  Biso   1.000  C
  H221     1.0000 0.17203  0.93057  0.64747  Biso   1.000  H
  C362     1.0000 0.22023  0.99297  0.65401  Biso   1.000  C
  H222     1.0000 0.22583  0.98977  0.67347  Biso   1.000  H
  C363     1.0000 0.24329  0.03320  0.63996  Biso   1.000  C
  C364     1.0000 0.23543  0.03692  0.61117  Biso   1.000  C
  H223     1.0000 0.25123  0.06377  0.60187  Biso   1.000  H
  C365     1.0000 0.20373  0.00045  0.59540  Biso   1.000  C
  H224     1.0000 0.19873  0.00337  0.57577  Biso   1.000  H
  C366     1.0000 0.92908  0.72337  0.65773  Biso   1.000  C
  O79      1.0000 0.93559  0.72008  0.68370  Biso   1.000  O
  O80      1.0000 0.89234  0.70151  0.64426  Biso   1.000  O
  C367     1.0000 0.27657  0.07100  0.65778  Biso   1.000  C
  O81      1.0000 0.27989  0.06448  0.68377  Biso   1.000  O
  O82      1.0000 0.29854  0.10767  0.64422  Biso   1.000  O
  C368     1.0000 0.15672  0.84324  0.43082  Biso   1.000  C
  O83      1.0000 0.12865  0.80785  0.41950  Biso   1.000  O
  O84      1.0000 0.19215  0.87127  0.41966  Biso   1.000  O
  C369     1.0000 0.72953  0.89357  0.47107  Biso   1.000  C
  C370     1.0000 0.74793  0.90217  0.49887  Biso   1.000  C
  C371     1.0000 0.74713  0.84487  0.49907  Biso   1.000  C
  C372     1.0000 0.72943  0.83567  0.47157  Biso   1.000  C
  H225     1.0000 0.73403  0.91677  0.45917  Biso   1.000  H
  H226     1.0000 0.76713  0.93087  0.50417  Biso   1.000  H
  H227     1.0000 0.76543  0.83447  0.50477  Biso   1.000  H
  H228     1.0000 0.73393  0.81687  0.45977  Biso   1.000  H
  Ni25     1.0000 0.02016  0.45931  0.94889  Biso   1.000  Ni
  Ni26     1.0000 0.02018  0.56086  0.94890  Biso   1.000  Ni
  O85      1.0000 0.03761  0.51886  0.96408  Biso   1.000  O
  C373     1.0000 0.78890  0.57820  0.88203  Biso   1.000  C
  C374     1.0000 0.75216  0.57156  0.89736  Biso   1.000  C
  H229     1.0000 0.73160  0.57620  0.88780  Biso   1.000  H
  C375     1.0000 0.74493  0.55853  0.92608  Biso   1.000  C
  C376     1.0000 0.77599  0.55219  0.94095  Biso   1.000  C
  H230     1.0000 0.77190  0.54410  0.96060  Biso   1.000  H
  C377     1.0000 0.81329  0.55819  0.92607  Biso   1.000  C
  C378     1.0000 0.81937  0.57137  0.89739  Biso   1.000  C
  H231     1.0000 0.84450  0.57600  0.88780  Biso   1.000  H
  C379     1.0000 0.79752  0.59502  0.85207  Biso   1.000  C
  C380     1.0000 0.78020  0.62000  0.84110  Biso   1.000  C
  H232     1.0000 0.76310  0.62610  0.85340  Biso   1.000  H
  C381     1.0000 0.78710  0.63610  0.81310  Biso   1.000  C
  H233     1.0000 0.77470  0.65230  0.80670  Biso   1.000  H
  C382     1.0000 0.84890  0.63650  0.81310  Biso   1.000  C
  H234     1.0000 0.87760  0.65350  0.80680  Biso   1.000  H
  C383     1.0000 0.83990  0.61970  0.84100  Biso   1.000  C
  H235     1.0000 0.86310  0.62490  0.85310  Biso   1.000  H
  C384     1.0000 0.81386  0.62753  0.79407  Biso   1.000  C
  C385     1.0000 0.84709  0.55319  0.94273  Biso   1.000  C
  C386     1.0000 0.85484  0.56424  0.97137  Biso   1.000  C
  H236     1.0000 0.83840  0.57440  0.98080  Biso   1.000  H
  C387     1.0000 0.88658  0.56048  0.98734  Biso   1.000  C
  H237     1.0000 0.89210  0.56920  0.00680  Biso   1.000  H
  C388     1.0000 0.90980  0.54335  0.97323  Biso   1.000  C
  C389     1.0000 0.90201  0.53181  0.94455  Biso   1.000  C
  H238     1.0000 0.91780  0.52080  0.93520  Biso   1.000  H
  C390     1.0000 0.87022  0.53632  0.92872  Biso   1.000  C
  H239     1.0000 0.86480  0.52800  0.90920  Biso   1.000  H
  C391     1.0000 0.70615  0.55295  0.94261  Biso   1.000  C
  C392     1.0000 0.70950  0.56430  0.97139  Biso   1.000  C
  H240     1.0000 0.73610  0.57480  0.98080  Biso   1.000  H
  C393     1.0000 0.67370  0.56060  0.98734  Biso   1.000  C
  H241     1.0000 0.67690  0.56940  0.00680  Biso   1.000  H
  C394     1.0000 0.63347  0.54343  0.97329  Biso   1.000  C
  C395     1.0000 0.62975  0.53185  0.94450  Biso   1.000  C
  H242     1.0000 0.60290  0.52080  0.93520  Biso   1.000  H
  C396     1.0000 0.66622  0.53662  0.92873  Biso   1.000  C
  H243     1.0000 0.66330  0.52870  0.90910  Biso   1.000  H
  C397     1.0000 0.94330  0.53905  0.99106  Biso   1.000  C
  O86      1.0000 0.94659  0.54885  0.01703  Biso   1.000  O
  O87      1.0000 0.96516  0.52417  0.97759  Biso   1.000  O
  C398     1.0000 0.59567  0.53891  0.99111  Biso   1.000  C
  O88      1.0000 0.60219  0.54875  0.01710  Biso   1.000  O
  O89      1.0000 0.55900  0.52421  0.97755  Biso   1.000  O
  C399     1.0000 0.82343  0.64682  0.76415  Biso   1.000  C
  O90      1.0000 0.85882  0.65414  0.75283  Biso   1.000  O
  O91      1.0000 0.79540  0.65422  0.75299  Biso   1.000  O
  C400     1.0000 0.77310  0.16930  0.80440  Biso   1.000  C
  C401     1.0000 0.76450  0.17910  0.83220  Biso   1.000  C
  C402     1.0000 0.82180  0.23560  0.83240  Biso   1.000  C
  C403     1.0000 0.83100  0.22710  0.80490  Biso   1.000  C
  H244     1.0000 0.74990  0.15060  0.79250  Biso   1.000  H
  H245     1.0000 0.73580  0.16960  0.83750  Biso   1.000  H
  H246     1.0000 0.83220  0.26430  0.83810  Biso   1.000  H
  H247     1.0000 0.84980  0.25040  0.79310  Biso   1.000  H
  Ni27     1.0000 0.68683  0.79264  0.28222  Biso   1.000  Ni
  Ni28     1.0000 0.68685  0.89419  0.28223  Biso   1.000  Ni
  O92      1.0000 0.70428  0.85219  0.29741  Biso   1.000  O
  C404     1.0000 0.45557  0.91153  0.21536  Biso   1.000  C
  C405     1.0000 0.41883  0.90489  0.23069  Biso   1.000  C
  H248     1.0000 0.39827  0.90953  0.22113  Biso   1.000  H
  C406     1.0000 0.41160  0.89186  0.25941  Biso   1.000  C
  C407     1.0000 0.44266  0.88552  0.27428  Biso   1.000  C
  H249     1.0000 0.43857  0.87743  0.29393  Biso   1.000  H
  C408     1.0000 0.47996  0.89152  0.25940  Biso   1.000  C
  C409     1.0000 0.48604  0.90470  0.23072  Biso   1.000  C
  H250     1.0000 0.51117  0.90933  0.22113  Biso   1.000  H
  C410     1.0000 0.46419  0.92835  0.18540  Biso   1.000  C
  C411     1.0000 0.44687  0.95333  0.17443  Biso   1.000  C
  H251     1.0000 0.42977  0.95943  0.18673  Biso   1.000  H
  C412     1.0000 0.45377  0.96943  0.14643  Biso   1.000  C
  H252     1.0000 0.44137  0.98563  0.14003  Biso   1.000  H
  C413     1.0000 0.51557  0.96983  0.14643  Biso   1.000  C
  H253     1.0000 0.54427  0.98683  0.14013  Biso   1.000  H
  C414     1.0000 0.50657  0.95303  0.17433  Biso   1.000  C
  H254     1.0000 0.52977  0.95823  0.18643  Biso   1.000  H
  C415     1.0000 0.48053  0.96086  0.12740  Biso   1.000  C
  C416     1.0000 0.51376  0.88652  0.27606  Biso   1.000  C
  C417     1.0000 0.52151  0.89757  0.30470  Biso   1.000  C
  H255     1.0000 0.50507  0.90773  0.31413  Biso   1.000  H
  C418     1.0000 0.55325  0.89381  0.32067  Biso   1.000  C
  H256     1.0000 0.55877  0.90253  0.34013  Biso   1.000  H
  C419     1.0000 0.57647  0.87668  0.30656  Biso   1.000  C
  C420     1.0000 0.56868  0.86514  0.27788  Biso   1.000  C
  H257     1.0000 0.58447  0.85413  0.26853  Biso   1.000  H
  C421     1.0000 0.53689  0.86965  0.26205  Biso   1.000  C
  H258     1.0000 0.53147  0.86133  0.24253  Biso   1.000  H
  C422     1.0000 0.37282  0.88628  0.27594  Biso   1.000  C
  C423     1.0000 0.37617  0.89763  0.30472  Biso   1.000  C
  H259     1.0000 0.40277  0.90813  0.31413  Biso   1.000  H
  C424     1.0000 0.34037  0.89393  0.32067  Biso   1.000  C
  H260     1.0000 0.34357  0.90273  0.34013  Biso   1.000  H
  C425     1.0000 0.30014  0.87676  0.30662  Biso   1.000  C
  C426     1.0000 0.29642  0.86518  0.27783  Biso   1.000  C
  H261     1.0000 0.26957  0.85413  0.26853  Biso   1.000  H
  C427     1.0000 0.33289  0.86995  0.26206  Biso   1.000  C
  H262     1.0000 0.32997  0.86203  0.24243  Biso   1.000  H
  C428     1.0000 0.60997  0.87238  0.32439  Biso   1.000  C
  O93      1.0000 0.61326  0.88218  0.35036  Biso   1.000  O
  O94      1.0000 0.63183  0.85750  0.31092  Biso   1.000  O
  C429     1.0000 0.26234  0.87224  0.32444  Biso   1.000  C
  O95      1.0000 0.26886  0.88208  0.35043  Biso   1.000  O
  O96      1.0000 0.22567  0.85754  0.31088  Biso   1.000  O
  C430     1.0000 0.49010  0.98015  0.09748  Biso   1.000  C
  O97      1.0000 0.52549  0.98747  0.08616  Biso   1.000  O
  O98      1.0000 0.46207  0.98755  0.08632  Biso   1.000  O
  C431     1.0000 0.43977  0.50263  0.13773  Biso   1.000  C
  C432     1.0000 0.43117  0.51243  0.16553  Biso   1.000  C
  C433     1.0000 0.48847  0.56893  0.16573  Biso   1.000  C
  C434     1.0000 0.49767  0.56043  0.13823  Biso   1.000  C
  H263     1.0000 0.41657  0.48393  0.12583  Biso   1.000  H
  H264     1.0000 0.40247  0.50293  0.17083  Biso   1.000  H
  H265     1.0000 0.49887  0.59763  0.17143  Biso   1.000  H
  H266     1.0000 0.51647  0.58373  0.12643  Biso   1.000  H
  Ni29     1.0000 0.35349  0.12598  0.61556  Biso   1.000  Ni
  Ni30     1.0000 0.35351  0.22753  0.61556  Biso   1.000  Ni
  O99      1.0000 0.37094  0.18553  0.63075  Biso   1.000  O
  C435     1.0000 0.12223  0.24487  0.54870  Biso   1.000  C
  C436     1.0000 0.08549  0.23823  0.56403  Biso   1.000  C
  H267     1.0000 0.06493  0.24287  0.55447  Biso   1.000  H
  C437     1.0000 0.07826  0.22520  0.59275  Biso   1.000  C
  C438     1.0000 0.10932  0.21886  0.60762  Biso   1.000  C
  H268     1.0000 0.10523  0.21077  0.62727  Biso   1.000  H
  C439     1.0000 0.14662  0.22486  0.59274  Biso   1.000  C
  C440     1.0000 0.15270  0.23804  0.56406  Biso   1.000  C
  H269     1.0000 0.17783  0.24267  0.55447  Biso   1.000  H
  C441     1.0000 0.13085  0.26169  0.51874  Biso   1.000  C
  C442     1.0000 0.11353  0.28667  0.50777  Biso   1.000  C
  H270     1.0000 0.09643  0.29277  0.52007  Biso   1.000  H
  C443     1.0000 0.12043  0.30277  0.47977  Biso   1.000  C
  H271     1.0000 0.10803  0.31897  0.47337  Biso   1.000  H
  C444     1.0000 0.18223  0.30317  0.47977  Biso   1.000  C
  H272     1.0000 0.21093  0.32017  0.47347  Biso   1.000  H
  C445     1.0000 0.17323  0.28637  0.50767  Biso   1.000  C
  H273     1.0000 0.19643  0.29157  0.51977  Biso   1.000  H
  C446     1.0000 0.14719  0.29420  0.46074  Biso   1.000  C
  C447     1.0000 0.18042  0.21986  0.60940  Biso   1.000  C
  C448     1.0000 0.18817  0.23091  0.63804  Biso   1.000  C
  H274     1.0000 0.17173  0.24107  0.64747  Biso   1.000  H
  C449     1.0000 0.21991  0.22715  0.65401  Biso   1.000  C
  H275     1.0000 0.22543  0.23587  0.67347  Biso   1.000  H
  C450     1.0000 0.24313  0.21002  0.63990  Biso   1.000  C
  C451     1.0000 0.23534  0.19848  0.61122  Biso   1.000  C
  H276     1.0000 0.25113  0.18747  0.60187  Biso   1.000  H
  C452     1.0000 0.20355  0.20299  0.59539  Biso   1.000  C
  H277     1.0000 0.19813  0.19467  0.57587  Biso   1.000  H
  C453     1.0000 0.03948  0.21962  0.60928  Biso   1.000  C
  C454     1.0000 0.04283  0.23097  0.63806  Biso   1.000  C
  H278     1.0000 0.06943  0.24147  0.64747  Biso   1.000  H
  C455     1.0000 0.00703  0.22727  0.65401  Biso   1.000  C
  H279     1.0000 0.01023  0.23607  0.67347  Biso   1.000  H
  C456     1.0000 0.96680  0.21010  0.63996  Biso   1.000  C
  C457     1.0000 0.96308  0.19852  0.61117  Biso   1.000  C
  H280     1.0000 0.93623  0.18747  0.60187  Biso   1.000  H
  C458     1.0000 0.99955  0.20329  0.59540  Biso   1.000  C
  H281     1.0000 0.99663  0.19537  0.57577  Biso   1.000  H
  C459     1.0000 0.27663  0.20572  0.65773  Biso   1.000  C
  O100     1.0000 0.27992  0.21552  0.68370  Biso   1.000  O
  O101     1.0000 0.29849  0.19084  0.64426  Biso   1.000  O
  C460     1.0000 0.92900  0.20558  0.65778  Biso   1.000  C
  O102     1.0000 0.93552  0.21542  0.68377  Biso   1.000  O
  O103     1.0000 0.89233  0.19088  0.64422  Biso   1.000  O
  C461     1.0000 0.15676  0.31349  0.43082  Biso   1.000  C
  O104     1.0000 0.19215  0.32081  0.41950  Biso   1.000  O
  O105     1.0000 0.12873  0.32089  0.41966  Biso   1.000  O
  C462     1.0000 0.10643  0.83597  0.47107  Biso   1.000  C
  C463     1.0000 0.09783  0.84577  0.49887  Biso   1.000  C
  C464     1.0000 0.15513  0.90227  0.49907  Biso   1.000  C
  C465     1.0000 0.16433  0.89377  0.47157  Biso   1.000  C
  H282     1.0000 0.08323  0.81727  0.45917  Biso   1.000  H
  H283     1.0000 0.06913  0.83627  0.50417  Biso   1.000  H
  H284     1.0000 0.16553  0.93097  0.50477  Biso   1.000  H
  H285     1.0000 0.18313  0.91707  0.45977  Biso   1.000  H
  Ni31     1.0000 0.54069  0.56085  0.94889  Biso   1.000  Ni
  Ni32     1.0000 0.43914  0.45932  0.94890  Biso   1.000  Ni
  O106     1.0000 0.48114  0.51875  0.96408  Biso   1.000  O
  C466     1.0000 0.42180  0.21070  0.88203  Biso   1.000  C
  C467     1.0000 0.42844  0.18060  0.89736  Biso   1.000  C
  H286     1.0000 0.42380  0.15540  0.88780  Biso   1.000  H
  C468     1.0000 0.44147  0.18640  0.92608  Biso   1.000  C
  C469     1.0000 0.44781  0.22380  0.94095  Biso   1.000  C
  H287     1.0000 0.45590  0.22780  0.96060  Biso   1.000  H
  C470     1.0000 0.44181  0.25510  0.92607  Biso   1.000  C
  C471     1.0000 0.42863  0.24800  0.89739  Biso   1.000  C
  H288     1.0000 0.42400  0.26850  0.88780  Biso   1.000  H
  C472     1.0000 0.40498  0.20250  0.85207  Biso   1.000  C
  C473     1.0000 0.38000  0.16020  0.84110  Biso   1.000  C
  H289     1.0000 0.37390  0.13700  0.85340  Biso   1.000  H
  C474     1.0000 0.36390  0.15100  0.81310  Biso   1.000  C
  H290     1.0000 0.34770  0.12240  0.80670  Biso   1.000  H
  C475     1.0000 0.36350  0.21240  0.81310  Biso   1.000  C
  H291     1.0000 0.34650  0.22410  0.80680  Biso   1.000  H
  C476     1.0000 0.38030  0.22020  0.84100  Biso   1.000  C
  H292     1.0000 0.37510  0.23820  0.85310  Biso   1.000  H
  C477     1.0000 0.37247  0.18633  0.79407  Biso   1.000  C
  C478     1.0000 0.44681  0.29390  0.94273  Biso   1.000  C
  C479     1.0000 0.43576  0.29060  0.97137  Biso   1.000  C
  H293     1.0000 0.42560  0.26400  0.98080  Biso   1.000  H
  C480     1.0000 0.43952  0.32610  0.98734  Biso   1.000  C
  H294     1.0000 0.43080  0.32290  0.00680  Biso   1.000  H
  C481     1.0000 0.45665  0.36645  0.97323  Biso   1.000  C
  C482     1.0000 0.46819  0.37020  0.94455  Biso   1.000  C
  H295     1.0000 0.47920  0.39700  0.93520  Biso   1.000  H
  C483     1.0000 0.46368  0.33390  0.92872  Biso   1.000  C
  H296     1.0000 0.47200  0.33680  0.90920  Biso   1.000  H
  C484     1.0000 0.44705  0.15320  0.94261  Biso   1.000  C
  C485     1.0000 0.43570  0.14520  0.97139  Biso   1.000  C
  H297     1.0000 0.42520  0.16130  0.98080  Biso   1.000  H
  C486     1.0000 0.43940  0.11310  0.98734  Biso   1.000  C
  H298     1.0000 0.43060  0.10750  0.00680  Biso   1.000  H
  C487     1.0000 0.45657  0.09004  0.97329  Biso   1.000  C
  C488     1.0000 0.46815  0.09790  0.94450  Biso   1.000  C
  H299     1.0000 0.47920  0.08210  0.93520  Biso   1.000  H
  C489     1.0000 0.46338  0.12960  0.92873  Biso   1.000  C
  H300     1.0000 0.47130  0.13460  0.90910  Biso   1.000  H
  C490     1.0000 0.46095  0.40425  0.99106  Biso   1.000  C
  O107     1.0000 0.45115  0.39774  0.01703  Biso   1.000  O
  O108     1.0000 0.47583  0.44099  0.97759  Biso   1.000  O
  C491     1.0000 0.46109  0.05676  0.99111  Biso   1.000  C
  O109     1.0000 0.45125  0.05344  0.01710  Biso   1.000  O
  O110     1.0000 0.47579  0.03479  0.97755  Biso   1.000  O
  C492     1.0000 0.35318  0.17661  0.76415  Biso   1.000  C
  O111     1.0000 0.34586  0.20468  0.75283  Biso   1.000  O
  O112     1.0000 0.34578  0.14118  0.75299  Biso   1.000  O
  C493     1.0000 0.83070  0.60380  0.80440  Biso   1.000  C
  C494     1.0000 0.82090  0.58540  0.83220  Biso   1.000  C
  C495     1.0000 0.76440  0.58620  0.83240  Biso   1.000  C
  C496     1.0000 0.77290  0.60390  0.80490  Biso   1.000  C
  H301     1.0000 0.84940  0.59930  0.79250  Biso   1.000  H
  H302     1.0000 0.83040  0.56620  0.83750  Biso   1.000  H
  H303     1.0000 0.73570  0.56790  0.83810  Biso   1.000  H
  H304     1.0000 0.74960  0.59940  0.79310  Biso   1.000  H
  Ni33     1.0000 0.20736  0.89418  0.28222  Biso   1.000  Ni
  Ni34     1.0000 0.10581  0.79265  0.28223  Biso   1.000  Ni
  O113     1.0000 0.14781  0.85208  0.29741  Biso   1.000  O
  C497     1.0000 0.08847  0.54403  0.21536  Biso   1.000  C
  C498     1.0000 0.09511  0.51393  0.23069  Biso   1.000  C
  H305     1.0000 0.09047  0.48873  0.22113  Biso   1.000  H
  C499     1.0000 0.10814  0.51973  0.25941  Biso   1.000  C
  C500     1.0000 0.11448  0.55713  0.27428  Biso   1.000  C
  H306     1.0000 0.12257  0.56113  0.29393  Biso   1.000  H
  C501     1.0000 0.10848  0.58843  0.25940  Biso   1.000  C
  C502     1.0000 0.09530  0.58133  0.23072  Biso   1.000  C
  H307     1.0000 0.09067  0.60183  0.22113  Biso   1.000  H
  C503     1.0000 0.07165  0.53583  0.18540  Biso   1.000  C
  C504     1.0000 0.04667  0.49353  0.17443  Biso   1.000  C
  H308     1.0000 0.04057  0.47033  0.18673  Biso   1.000  H
  C505     1.0000 0.03057  0.48433  0.14643  Biso   1.000  C
  H309     1.0000 0.01437  0.45573  0.14003  Biso   1.000  H
  C506     1.0000 0.03017  0.54573  0.14643  Biso   1.000  C
  H310     1.0000 0.01317  0.55743  0.14013  Biso   1.000  H
  C507     1.0000 0.04697  0.55353  0.17433  Biso   1.000  C
  H311     1.0000 0.04177  0.57153  0.18643  Biso   1.000  H
  C508     1.0000 0.03914  0.51966  0.12740  Biso   1.000  C
  C509     1.0000 0.11348  0.62723  0.27606  Biso   1.000  C
  C510     1.0000 0.10243  0.62393  0.30470  Biso   1.000  C
  H312     1.0000 0.09227  0.59733  0.31413  Biso   1.000  H
  C511     1.0000 0.10619  0.65943  0.32067  Biso   1.000  C
  H313     1.0000 0.09747  0.65623  0.34013  Biso   1.000  H
  C512     1.0000 0.12332  0.69978  0.30656  Biso   1.000  C
  C513     1.0000 0.13486  0.70353  0.27788  Biso   1.000  C
  H314     1.0000 0.14587  0.73033  0.26853  Biso   1.000  H
  C514     1.0000 0.13035  0.66723  0.26205  Biso   1.000  C
  H315     1.0000 0.13867  0.67013  0.24253  Biso   1.000  H
  C515     1.0000 0.11372  0.48653  0.27594  Biso   1.000  C
  C516     1.0000 0.10237  0.47853  0.30472  Biso   1.000  C
  H316     1.0000 0.09187  0.49463  0.31413  Biso   1.000  H
  C517     1.0000 0.10607  0.44643  0.32067  Biso   1.000  C
  H317     1.0000 0.09727  0.44083  0.34013  Biso   1.000  H
  C518     1.0000 0.12324  0.42337  0.30662  Biso   1.000  C
  C519     1.0000 0.13482  0.43123  0.27783  Biso   1.000  C
  H318     1.0000 0.14587  0.41543  0.26853  Biso   1.000  H
  C520     1.0000 0.13005  0.46293  0.26206  Biso   1.000  C
  H319     1.0000 0.13797  0.46793  0.24243  Biso   1.000  H
  C521     1.0000 0.12762  0.73758  0.32439  Biso   1.000  C
  O114     1.0000 0.11782  0.73107  0.35036  Biso   1.000  O
  O115     1.0000 0.14250  0.77432  0.31092  Biso   1.000  O
  C522     1.0000 0.12776  0.39009  0.32444  Biso   1.000  C
  O116     1.0000 0.11792  0.38677  0.35043  Biso   1.000  O
  O117     1.0000 0.14246  0.36812  0.31088  Biso   1.000  O
  C523     1.0000 0.01985  0.50994  0.09748  Biso   1.000  C
  O118     1.0000 0.01253  0.53801  0.08616  Biso   1.000  O
  O119     1.0000 0.01245  0.47451  0.08632  Biso   1.000  O
  C524     1.0000 0.49737  0.93713  0.13773  Biso   1.000  C
  C525     1.0000 0.48757  0.91873  0.16553  Biso   1.000  C
  C526     1.0000 0.43107  0.91953  0.16573  Biso   1.000  C
  C527     1.0000 0.43957  0.93723  0.13823  Biso   1.000  C
  H320     1.0000 0.51607  0.93263  0.12583  Biso   1.000  H
  H321     1.0000 0.49707  0.89953  0.17083  Biso   1.000  H
  H322     1.0000 0.40237  0.90123  0.17143  Biso   1.000  H
  H323     1.0000 0.41627  0.93273  0.12643  Biso   1.000  H
  Ni35     1.0000 0.87402  0.22752  0.61556  Biso   1.000  Ni
  Ni36     1.0000 0.77247  0.12599  0.61556  Biso   1.000  Ni
  O120     1.0000 0.81447  0.18542  0.63075  Biso   1.000  O
  C528     1.0000 0.75513  0.87737  0.54870  Biso   1.000  C
  C529     1.0000 0.76177  0.84727  0.56403  Biso   1.000  C
  H324     1.0000 0.75713  0.82207  0.55447  Biso   1.000  H
  C530     1.0000 0.77480  0.85307  0.59275  Biso   1.000  C
  C531     1.0000 0.78114  0.89047  0.60762  Biso   1.000  C
  H325     1.0000 0.78923  0.89447  0.62727  Biso   1.000  H
  C532     1.0000 0.77514  0.92177  0.59274  Biso   1.000  C
  C533     1.0000 0.76196  0.91467  0.56406  Biso   1.000  C
  H326     1.0000 0.75733  0.93517  0.55447  Biso   1.000  H
  C534     1.0000 0.73831  0.86917  0.51874  Biso   1.000  C
  C535     1.0000 0.71333  0.82687  0.50777  Biso   1.000  C
  H327     1.0000 0.70723  0.80367  0.52007  Biso   1.000  H
  C536     1.0000 0.69723  0.81767  0.47977  Biso   1.000  C
  H328     1.0000 0.68103  0.78907  0.47337  Biso   1.000  H
  C537     1.0000 0.69683  0.87907  0.47977  Biso   1.000  C
  H329     1.0000 0.67983  0.89077  0.47347  Biso   1.000  H
  C538     1.0000 0.71363  0.88687  0.50767  Biso   1.000  C
  H330     1.0000 0.70843  0.90487  0.51977  Biso   1.000  H
  C539     1.0000 0.70580  0.85300  0.46074  Biso   1.000  C
  C540     1.0000 0.78014  0.96057  0.60940  Biso   1.000  C
  C541     1.0000 0.76909  0.95727  0.63804  Biso   1.000  C
  H331     1.0000 0.75893  0.93067  0.64747  Biso   1.000  H
  C542     1.0000 0.77285  0.99277  0.65401  Biso   1.000  C
  H332     1.0000 0.76413  0.98957  0.67347  Biso   1.000  H
  C543     1.0000 0.78998  0.03312  0.63990  Biso   1.000  C
  C544     1.0000 0.80152  0.03687  0.61122  Biso   1.000  C
  H333     1.0000 0.81253  0.06367  0.60187  Biso   1.000  H
  C545     1.0000 0.79701  0.00057  0.59539  Biso   1.000  C
  H334     1.0000 0.80533  0.00347  0.57587  Biso   1.000  H
  C546     1.0000 0.78038  0.81987  0.60928  Biso   1.000  C
  C547     1.0000 0.76903  0.81187  0.63806  Biso   1.000  C
  H335     1.0000 0.75853  0.82797  0.64747  Biso   1.000  H
  C548     1.0000 0.77273  0.77977  0.65401  Biso   1.000  C
  H336     1.0000 0.76393  0.77417  0.67347  Biso   1.000  H
  C549     1.0000 0.78990  0.75671  0.63996  Biso   1.000  C
  C550     1.0000 0.80148  0.76457  0.61117  Biso   1.000  C
  H337     1.0000 0.81253  0.74877  0.60187  Biso   1.000  H
  C551     1.0000 0.79671  0.79627  0.59540  Biso   1.000  C
  H338     1.0000 0.80463  0.80127  0.57577  Biso   1.000  H
  C552     1.0000 0.79428  0.07092  0.65773  Biso   1.000  C
  O121     1.0000 0.78448  0.06441  0.68370  Biso   1.000  O
  O122     1.0000 0.80916  0.10766  0.64426  Biso   1.000  O
  C553     1.0000 0.79442  0.72343  0.65778  Biso   1.000  C
  O123     1.0000 0.78458  0.72011  0.68377  Biso   1.000  O
  O124     1.0000 0.80912  0.70146  0.64422  Biso   1.000  O
  C554     1.0000 0.68651  0.84328  0.43082  Biso   1.000  C
  O125     1.0000 0.67919  0.87135  0.41950  Biso   1.000  O
  O126     1.0000 0.67911  0.80785  0.41966  Biso   1.000  O
  C555     1.0000 0.16403  0.27047  0.47107  Biso   1.000  C
  C556     1.0000 0.15423  0.25207  0.49887  Biso   1.000  C
  C557     1.0000 0.09773  0.25287  0.49907  Biso   1.000  C
  C558     1.0000 0.10623  0.27057  0.47157  Biso   1.000  C
  H339     1.0000 0.18273  0.26597  0.45917  Biso   1.000  H
  H340     1.0000 0.16373  0.23287  0.50417  Biso   1.000  H
  H341     1.0000 0.06903  0.23457  0.50477  Biso   1.000  H
  H342     1.0000 0.08293  0.26607  0.45977  Biso   1.000  H
  Ni37     1.0000 0.50000  0.00000  0.00000  Biso   1.000  Ni
  Ni38     1.0000 0.16667  0.33333  0.33333  Biso   1.000  Ni
  Ni39     1.0000 0.83333  0.66667  0.66667  Biso   1.000  Ni
  Ni40     1.0000 0.00000  0.50000  0.00000  Biso   1.000  Ni
  Ni41     1.0000 0.66667  0.83333  0.33333  Biso   1.000  Ni
  Ni42     1.0000 0.33333  0.16667  0.66667  Biso   1.000  Ni
  Ni43     1.0000 0.50000  0.50000  0.00000  Biso   1.000  Ni
  Ni44     1.0000 0.16667  0.83333  0.33333  Biso   1.000  Ni
  Ni45     1.0000 0.83333  0.16667  0.66667  Biso   1.000  Ni
