data_image0
_cell_length_a       12.345
_cell_length_b       33.257
_cell_length_c       12.934
_cell_angle_alpha    90
_cell_angle_beta     96.66
_cell_angle_gamma    90

_symmetry_space_group_name_H-M    "P 1"
_symmetry_int_tables_number       1

loop_
  _symmetry_equiv_pos_as_xyz
  'x, y, z'

loop_
  _atom_site_label
  _atom_site_occupancy
  _atom_site_fract_x
  _atom_site_fract_y
  _atom_site_fract_z
  _atom_site_thermal_displace_type
  _atom_site_B_iso_or_equiv
  _atom_site_type_symbol
  N1       1.0000 0.62420  0.79320  0.75710  Biso   1.000  N
  C1       1.0000 0.57650  0.82480  0.72140  Biso   1.000  C
  N2       1.0000 0.55430  0.78503  0.84060  Biso   1.000  N
  C2       1.0000 0.48560  0.83850  0.76390  Biso   1.000  C
  C3       1.0000 0.62700  0.84520  0.62400  Biso   1.000  C
  C4       1.0000 0.47350  0.81235  0.83550  Biso   1.000  C
  C5       1.0000 0.41340  0.87510  0.73490  Biso   1.000  C
  H1       1.0000 0.66610  0.82480  0.58810  Biso   1.000  H
  H2       1.0000 0.67760  0.86670  0.64930  Biso   1.000  H
  H3       1.0000 0.56790  0.85650  0.57550  Biso   1.000  H
  C6       1.0000 0.44210  0.91000  0.76130  Biso   1.000  C
  C7       1.0000 0.30720  0.87270  0.69140  Biso   1.000  C
  C8       1.0000 0.38960  0.94490  0.72180  Biso   1.000  C
  H4       1.0000 0.50400  0.91300  0.81170  Biso   1.000  H
  C9       1.0000 0.24170  0.90760  0.65890  Biso   1.000  C
  H5       1.0000 0.27470  0.84690  0.68220  Biso   1.000  H
  C10      1.0000 0.29230  0.94326  0.66970  Biso   1.000  C
  H6       1.0000 0.42500  0.97020  0.73300  Biso   1.000  H
  H7       1.0000 0.16710  0.90540  0.63150  Biso   1.000  H
  C11      1.0000 0.23420  0.97965  0.62630  Biso   1.000  C
  O1       1.0000 0.28070  0.01361  0.64800  Biso   1.000  O
  O2       1.0000 0.14700  0.97536  0.57180  Biso   1.000  O
  Mn1      1.0000 0.20740  0.06858  0.59737  Biso   1.000  Mn
  N3       1.0000 0.36410  0.10194  0.61630  Biso   1.000  N
  N4       1.0000 0.20320  0.08749  0.76710  Biso   1.000  N
  O3       1.0000 0.03410  0.05547  0.59530  Biso   1.000  O
  O4       1.0000 0.20970  0.06721  0.43550  Biso   1.000  O
  O5       1.0000 0.07120  0.02699  0.37750  Biso   1.000  O
  N5       1.0000 0.38560  0.13270  0.68560  Biso   1.000  N
  C12      1.0000 0.46160  0.09013  0.59110  Biso   1.000  C
  N6       1.0000 0.25490  0.12204  0.80400  Biso   1.000  N
  C13      1.0000 0.17280  0.06835  0.84900  Biso   1.000  C
  C14      1.0000 0.99810  0.09152  0.59300  Biso   1.000  C
  C15      1.0000 0.29430  0.14940  0.73120  Biso   1.000  C
  C16      1.0000 0.49350  0.14037  0.70280  Biso   1.000  C
  C17      1.0000 0.54510  0.11371  0.64330  Biso   1.000  C
  C18      1.0000 0.47020  0.05570  0.51840  Biso   1.000  C
  C19      1.0000 0.25920  0.12420  0.90910  Biso   1.000  C
  C20      1.0000 0.20830  0.09038  0.94150  Biso   1.000  C
  C21      1.0000 0.11540  0.02934  0.83780  Biso   1.000  C
  O6       1.0000 0.06150  0.12068  0.57910  Biso   1.000  O
  C22      1.0000 0.88320  0.09862  0.61000  Biso   1.000  C
  H8       1.0000 0.31690  0.17480  0.76730  Biso   1.000  H
  H9       1.0000 0.23480  0.15560  0.67550  Biso   1.000  H
  C23      1.0000 0.54200  0.17170  0.77670  Biso   1.000  C
  C24      1.0000 0.66280  0.10953  0.63580  Biso   1.000  C
  H10      1.0000 0.47250  0.03040  0.55750  Biso   1.000  H
  H11      1.0000 0.53710  0.05840  0.48480  Biso   1.000  H
  H12      1.0000 0.40690  0.05560  0.46520  Biso   1.000  H
  C25      1.0000 0.31320  0.15830  0.97090  Biso   1.000  C
  C26      1.0000 0.19080  0.08012  0.04850  Biso   1.000  C
  H13      1.0000 0.04860  0.03230  0.78960  Biso   1.000  H
  H14      1.0000 0.09680  0.02060  0.90590  Biso   1.000  H
  H15      1.0000 0.16290  0.00930  0.81050  Biso   1.000  H
  C27      1.0000 0.82080  0.06673  0.64340  Biso   1.000  C
  C28      1.0000 0.83530  0.13591  0.59410  Biso   1.000  C
  H16      1.0000 0.50700  0.19770  0.75920  Biso   1.000  H
  H17      1.0000 0.62040  0.17390  0.77150  Biso   1.000  H
  H18      1.0000 0.53060  0.16420  0.84790  Biso   1.000  H
  C29      1.0000 0.71460  0.07253  0.65600  Biso   1.000  C
  C30      1.0000 0.72570  0.14157  0.60830  Biso   1.000  C
  H19      1.0000 0.39240  0.15640  0.97120  Biso   1.000  H
  H20      1.0000 0.29490  0.15700  0.04260  Biso   1.000  H
  H21      1.0000 0.28760  0.18390  0.93940  Biso   1.000  H
  C31      1.0000 0.08650  0.06750  0.07250  Biso   1.000  C
  C32      1.0000 0.27650  0.08340  0.12610  Biso   1.000  C
  H22      1.0000 0.85330  0.04110  0.65720  Biso   1.000  H
  H23      1.0000 0.87700  0.15790  0.57340  Biso   1.000  H
  H24      1.0000 0.67390  0.05070  0.67930  Biso   1.000  H
  H25      1.0000 0.69400  0.16750  0.59910  Biso   1.000  H
  H26      1.0000 0.02640  0.06620  0.01970  Biso   1.000  H
  C33      1.0000 0.07410  0.05720  0.17500  Biso   1.000  C
  C34      1.0000 0.26290  0.07230  0.22810  Biso   1.000  C
  H27      1.0000 0.34510  0.09320  0.11040  Biso   1.000  H
  C35      1.0000 0.16350  0.06111  0.25560  Biso   1.000  C
  H28      1.0000 0.00580  0.04750  0.19160  Biso   1.000  H
  H29      1.0000 0.32430  0.07260  0.27970  Biso   1.000  H
  C36      1.0000 0.14680  0.05075  0.36460  Biso   1.000  C
  C37      1.0000 0.20450  0.04010  0.09030  Biso   1.000  C
  H30      1.0000 0.22480  0.01890  0.04710  Biso   1.000  H
  C38      1.0000 0.16530  0.10140  0.22580  Biso   1.000  C
  H31      1.0000 0.16060  0.12220  0.27540  Biso   1.000  H
  C39      1.0000 0.18840  0.03190  0.19350  Biso   1.000  C
  H32      1.0000 0.19540  0.00510  0.21910  Biso   1.000  H
  C40      1.0000 0.17400  0.11040  0.12370  Biso   1.000  C
  H33      1.0000 0.16890  0.13770  0.10210  Biso   1.000  H
  N7       1.0000 0.37580  0.29320  0.24290  Biso   1.000  N
  C41      1.0000 0.42350  0.32480  0.27860  Biso   1.000  C
  N8       1.0000 0.44570  0.28503  0.15940  Biso   1.000  N
  C42      1.0000 0.51440  0.33850  0.23610  Biso   1.000  C
  C43      1.0000 0.37300  0.34520  0.37600  Biso   1.000  C
  C44      1.0000 0.52650  0.31235  0.16450  Biso   1.000  C
  C45      1.0000 0.58660  0.37510  0.26510  Biso   1.000  C
  H34      1.0000 0.33390  0.32480  0.41190  Biso   1.000  H
  H35      1.0000 0.32240  0.36670  0.35070  Biso   1.000  H
  H36      1.0000 0.43210  0.35650  0.42450  Biso   1.000  H
  C46      1.0000 0.55790  0.41000  0.23870  Biso   1.000  C
  C47      1.0000 0.69280  0.37270  0.30860  Biso   1.000  C
  C48      1.0000 0.61040  0.44490  0.27820  Biso   1.000  C
  H37      1.0000 0.49600  0.41300  0.18830  Biso   1.000  H
  C49      1.0000 0.75830  0.40760  0.34110  Biso   1.000  C
  H38      1.0000 0.72530  0.34690  0.31780  Biso   1.000  H
  C50      1.0000 0.70770  0.44326  0.33030  Biso   1.000  C
  H39      1.0000 0.57500  0.47020  0.26700  Biso   1.000  H
  H40      1.0000 0.83290  0.40540  0.36850  Biso   1.000  H
  C51      1.0000 0.76580  0.47965  0.37370  Biso   1.000  C
  O7       1.0000 0.71930  0.51361  0.35200  Biso   1.000  O
  O8       1.0000 0.85300  0.47536  0.42820  Biso   1.000  O
  Mn2      1.0000 0.79260  0.56858  0.40263  Biso   1.000  Mn
  N9       1.0000 0.63590  0.60194  0.38370  Biso   1.000  N
  N10      1.0000 0.79680  0.58749  0.23290  Biso   1.000  N
  O9       1.0000 0.96590  0.55547  0.40470  Biso   1.000  O
  O10      1.0000 0.79030  0.56721  0.56450  Biso   1.000  O
  O11      1.0000 0.92880  0.52699  0.62250  Biso   1.000  O
  N11      1.0000 0.61440  0.63270  0.31440  Biso   1.000  N
  C52      1.0000 0.53840  0.59013  0.40890  Biso   1.000  C
  N12      1.0000 0.74510  0.62204  0.19600  Biso   1.000  N
  C53      1.0000 0.82720  0.56835  0.15100  Biso   1.000  C
  C54      1.0000 0.00190  0.59152  0.40700  Biso   1.000  C
  C55      1.0000 0.70570  0.64940  0.26880  Biso   1.000  C
  C56      1.0000 0.50650  0.64037  0.29720  Biso   1.000  C
  C57      1.0000 0.45490  0.61371  0.35670  Biso   1.000  C
  C58      1.0000 0.52980  0.55570  0.48160  Biso   1.000  C
  C59      1.0000 0.74080  0.62420  0.09090  Biso   1.000  C
  C60      1.0000 0.79170  0.59038  0.05850  Biso   1.000  C
  C61      1.0000 0.88460  0.52934  0.16220  Biso   1.000  C
  O12      1.0000 0.93850  0.62068  0.42090  Biso   1.000  O
  C62      1.0000 0.11680  0.59862  0.39000  Biso   1.000  C
  H41      1.0000 0.68310  0.67480  0.23270  Biso   1.000  H
  H42      1.0000 0.76520  0.65560  0.32450  Biso   1.000  H
  C63      1.0000 0.45800  0.67170  0.22330  Biso   1.000  C
  C64      1.0000 0.33720  0.60953  0.36420  Biso   1.000  C
  H43      1.0000 0.52750  0.53040  0.44250  Biso   1.000  H
  H44      1.0000 0.46290  0.55840  0.51520  Biso   1.000  H
  H45      1.0000 0.59310  0.55560  0.53480  Biso   1.000  H
  C65      1.0000 0.68680  0.65830  0.02910  Biso   1.000  C
  C66      1.0000 0.80920  0.58012  0.95150  Biso   1.000  C
  H46      1.0000 0.95140  0.53230  0.21040  Biso   1.000  H
  H47      1.0000 0.90320  0.52060  0.09410  Biso   1.000  H
  H48      1.0000 0.83710  0.50930  0.18950  Biso   1.000  H
  C67      1.0000 0.17920  0.56673  0.35660  Biso   1.000  C
  C68      1.0000 0.16470  0.63591  0.40590  Biso   1.000  C
  H49      1.0000 0.49300  0.69770  0.24080  Biso   1.000  H
  H50      1.0000 0.37960  0.67390  0.22850  Biso   1.000  H
  H51      1.0000 0.46940  0.66420  0.15210  Biso   1.000  H
  C69      1.0000 0.28540  0.57253  0.34400  Biso   1.000  C
  C70      1.0000 0.27430  0.64157  0.39170  Biso   1.000  C
  H52      1.0000 0.60760  0.65640  0.02880  Biso   1.000  H
  H53      1.0000 0.70510  0.65700  0.95740  Biso   1.000  H
  H54      1.0000 0.71240  0.68390  0.06060  Biso   1.000  H
  C71      1.0000 0.91350  0.56750  0.92750  Biso   1.000  C
  C72      1.0000 0.72350  0.58340  0.87390  Biso   1.000  C
  H55      1.0000 0.14670  0.54110  0.34280  Biso   1.000  H
  H56      1.0000 0.12300  0.65790  0.42660  Biso   1.000  H
  H57      1.0000 0.32610  0.55070  0.32070  Biso   1.000  H
  H58      1.0000 0.30600  0.66750  0.40090  Biso   1.000  H
  H59      1.0000 0.97360  0.56620  0.98030  Biso   1.000  H
  C73      1.0000 0.92590  0.55720  0.82500  Biso   1.000  C
  C74      1.0000 0.73710  0.57230  0.77190  Biso   1.000  C
  H60      1.0000 0.65490  0.59320  0.88960  Biso   1.000  H
  C75      1.0000 0.83650  0.56111  0.74440  Biso   1.000  C
  H61      1.0000 0.99420  0.54750  0.80840  Biso   1.000  H
  H62      1.0000 0.67570  0.57260  0.72030  Biso   1.000  H
  C76      1.0000 0.85320  0.55075  0.63540  Biso   1.000  C
  C77      1.0000 0.79550  0.54010  0.90970  Biso   1.000  C
  H63      1.0000 0.77520  0.51890  0.95290  Biso   1.000  H
  C78      1.0000 0.83470  0.60140  0.77420  Biso   1.000  C
  H64      1.0000 0.83940  0.62220  0.72460  Biso   1.000  H
  C79      1.0000 0.81160  0.53190  0.80650  Biso   1.000  C
  H65      1.0000 0.80460  0.50510  0.78090  Biso   1.000  H
  C80      1.0000 0.82600  0.61040  0.87630  Biso   1.000  C
  H66      1.0000 0.83110  0.63770  0.89790  Biso   1.000  H
  N13      1.0000 0.37580  0.20680  0.24290  Biso   1.000  N
  C81      1.0000 0.42350  0.17520  0.27860  Biso   1.000  C
  N14      1.0000 0.44570  0.21497  0.15940  Biso   1.000  N
  C82      1.0000 0.51440  0.16150  0.23610  Biso   1.000  C
  C83      1.0000 0.37300  0.15480  0.37600  Biso   1.000  C
  C84      1.0000 0.52650  0.18765  0.16450  Biso   1.000  C
  C85      1.0000 0.58660  0.12490  0.26510  Biso   1.000  C
  H67      1.0000 0.33390  0.17520  0.41190  Biso   1.000  H
  H68      1.0000 0.32240  0.13330  0.35070  Biso   1.000  H
  H69      1.0000 0.43210  0.14350  0.42450  Biso   1.000  H
  C86      1.0000 0.55790  0.09000  0.23870  Biso   1.000  C
  C87      1.0000 0.69280  0.12730  0.30860  Biso   1.000  C
  C88      1.0000 0.61040  0.05510  0.27820  Biso   1.000  C
  H70      1.0000 0.49600  0.08700  0.18830  Biso   1.000  H
  C89      1.0000 0.75830  0.09240  0.34110  Biso   1.000  C
  H71      1.0000 0.72530  0.15310  0.31780  Biso   1.000  H
  C90      1.0000 0.70770  0.05674  0.33030  Biso   1.000  C
  H72      1.0000 0.57500  0.02980  0.26700  Biso   1.000  H
  H73      1.0000 0.83290  0.09460  0.36850  Biso   1.000  H
  C91      1.0000 0.76580  0.02035  0.37370  Biso   1.000  C
  O13      1.0000 0.71930  0.98639  0.35200  Biso   1.000  O
  O14      1.0000 0.85300  0.02464  0.42820  Biso   1.000  O
  Mn3      1.0000 0.79260  0.93142  0.40263  Biso   1.000  Mn
  N15      1.0000 0.63590  0.89806  0.38370  Biso   1.000  N
  N16      1.0000 0.79680  0.91251  0.23290  Biso   1.000  N
  O15      1.0000 0.96590  0.94453  0.40470  Biso   1.000  O
  O16      1.0000 0.79030  0.93279  0.56450  Biso   1.000  O
  O17      1.0000 0.92880  0.97301  0.62250  Biso   1.000  O
  N17      1.0000 0.61440  0.86730  0.31440  Biso   1.000  N
  C92      1.0000 0.53840  0.90987  0.40890  Biso   1.000  C
  N18      1.0000 0.74510  0.87796  0.19600  Biso   1.000  N
  C93      1.0000 0.82720  0.93165  0.15100  Biso   1.000  C
  C94      1.0000 0.00190  0.90848  0.40700  Biso   1.000  C
  C95      1.0000 0.70570  0.85060  0.26880  Biso   1.000  C
  C96      1.0000 0.50650  0.85963  0.29720  Biso   1.000  C
  C97      1.0000 0.45490  0.88629  0.35670  Biso   1.000  C
  C98      1.0000 0.52980  0.94430  0.48160  Biso   1.000  C
  C99      1.0000 0.74080  0.87580  0.09090  Biso   1.000  C
  C100     1.0000 0.79170  0.90962  0.05850  Biso   1.000  C
  C101     1.0000 0.88460  0.97066  0.16220  Biso   1.000  C
  O18      1.0000 0.93850  0.87932  0.42090  Biso   1.000  O
  C102     1.0000 0.11680  0.90138  0.39000  Biso   1.000  C
  H74      1.0000 0.68310  0.82520  0.23270  Biso   1.000  H
  H75      1.0000 0.76520  0.84440  0.32450  Biso   1.000  H
  C103     1.0000 0.45800  0.82830  0.22330  Biso   1.000  C
  C104     1.0000 0.33720  0.89047  0.36420  Biso   1.000  C
  H76      1.0000 0.52750  0.96960  0.44250  Biso   1.000  H
  H77      1.0000 0.46290  0.94160  0.51520  Biso   1.000  H
  H78      1.0000 0.59310  0.94440  0.53480  Biso   1.000  H
  C105     1.0000 0.68680  0.84170  0.02910  Biso   1.000  C
  C106     1.0000 0.80920  0.91988  0.95150  Biso   1.000  C
  H79      1.0000 0.95140  0.96770  0.21040  Biso   1.000  H
  H80      1.0000 0.90320  0.97940  0.09410  Biso   1.000  H
  H81      1.0000 0.83710  0.99070  0.18950  Biso   1.000  H
  C107     1.0000 0.17920  0.93327  0.35660  Biso   1.000  C
  C108     1.0000 0.16470  0.86409  0.40590  Biso   1.000  C
  H82      1.0000 0.49300  0.80230  0.24080  Biso   1.000  H
  H83      1.0000 0.37960  0.82610  0.22850  Biso   1.000  H
  H84      1.0000 0.46940  0.83580  0.15210  Biso   1.000  H
  C109     1.0000 0.28540  0.92747  0.34400  Biso   1.000  C
  C110     1.0000 0.27430  0.85843  0.39170  Biso   1.000  C
  H85      1.0000 0.60760  0.84360  0.02880  Biso   1.000  H
  H86      1.0000 0.70510  0.84300  0.95740  Biso   1.000  H
  H87      1.0000 0.71240  0.81610  0.06060  Biso   1.000  H
  C111     1.0000 0.91350  0.93250  0.92750  Biso   1.000  C
  C112     1.0000 0.72350  0.91660  0.87390  Biso   1.000  C
  H88      1.0000 0.14670  0.95890  0.34280  Biso   1.000  H
  H89      1.0000 0.12300  0.84210  0.42660  Biso   1.000  H
  H90      1.0000 0.32610  0.94930  0.32070  Biso   1.000  H
  H91      1.0000 0.30600  0.83250  0.40090  Biso   1.000  H
  H92      1.0000 0.97360  0.93380  0.98030  Biso   1.000  H
  C113     1.0000 0.92590  0.94280  0.82500  Biso   1.000  C
  C114     1.0000 0.73710  0.92770  0.77190  Biso   1.000  C
  H93      1.0000 0.65490  0.90680  0.88960  Biso   1.000  H
  C115     1.0000 0.83650  0.93889  0.74440  Biso   1.000  C
  H94      1.0000 0.99420  0.95250  0.80840  Biso   1.000  H
  H95      1.0000 0.67570  0.92740  0.72030  Biso   1.000  H
  C116     1.0000 0.85320  0.94925  0.63540  Biso   1.000  C
  C117     1.0000 0.79550  0.95990  0.90970  Biso   1.000  C
  H96      1.0000 0.77520  0.98110  0.95290  Biso   1.000  H
  C118     1.0000 0.83470  0.89860  0.77420  Biso   1.000  C
  H97      1.0000 0.83940  0.87780  0.72460  Biso   1.000  H
  C119     1.0000 0.81160  0.96810  0.80650  Biso   1.000  C
  H98      1.0000 0.80460  0.99490  0.78090  Biso   1.000  H
  C120     1.0000 0.82600  0.88960  0.87630  Biso   1.000  C
  H99      1.0000 0.83110  0.86230  0.89790  Biso   1.000  H
  N19      1.0000 0.62420  0.70680  0.75710  Biso   1.000  N
  C121     1.0000 0.57650  0.67520  0.72140  Biso   1.000  C
  N20      1.0000 0.55430  0.71497  0.84060  Biso   1.000  N
  C122     1.0000 0.48560  0.66150  0.76390  Biso   1.000  C
  C123     1.0000 0.62700  0.65480  0.62400  Biso   1.000  C
  C124     1.0000 0.47350  0.68765  0.83550  Biso   1.000  C
  C125     1.0000 0.41340  0.62490  0.73490  Biso   1.000  C
  H100     1.0000 0.66610  0.67520  0.58810  Biso   1.000  H
  H101     1.0000 0.67760  0.63330  0.64930  Biso   1.000  H
  H102     1.0000 0.56790  0.64350  0.57550  Biso   1.000  H
  C126     1.0000 0.44210  0.59000  0.76130  Biso   1.000  C
  C127     1.0000 0.30720  0.62730  0.69140  Biso   1.000  C
  C128     1.0000 0.38960  0.55510  0.72180  Biso   1.000  C
  H103     1.0000 0.50400  0.58700  0.81170  Biso   1.000  H
  C129     1.0000 0.24170  0.59240  0.65890  Biso   1.000  C
  H104     1.0000 0.27470  0.65310  0.68220  Biso   1.000  H
  C130     1.0000 0.29230  0.55674  0.66970  Biso   1.000  C
  H105     1.0000 0.42500  0.52980  0.73300  Biso   1.000  H
  H106     1.0000 0.16710  0.59460  0.63150  Biso   1.000  H
  C131     1.0000 0.23420  0.52035  0.62630  Biso   1.000  C
  O19      1.0000 0.28070  0.48639  0.64800  Biso   1.000  O
  O20      1.0000 0.14700  0.52464  0.57180  Biso   1.000  O
  Mn4      1.0000 0.20740  0.43142  0.59737  Biso   1.000  Mn
  N21      1.0000 0.36410  0.39806  0.61630  Biso   1.000  N
  N22      1.0000 0.20320  0.41251  0.76710  Biso   1.000  N
  O21      1.0000 0.03410  0.44453  0.59530  Biso   1.000  O
  O22      1.0000 0.20970  0.43279  0.43550  Biso   1.000  O
  O23      1.0000 0.07120  0.47301  0.37750  Biso   1.000  O
  N23      1.0000 0.38560  0.36730  0.68560  Biso   1.000  N
  C132     1.0000 0.46160  0.40987  0.59110  Biso   1.000  C
  N24      1.0000 0.25490  0.37796  0.80400  Biso   1.000  N
  C133     1.0000 0.17280  0.43165  0.84900  Biso   1.000  C
  C134     1.0000 0.99810  0.40848  0.59300  Biso   1.000  C
  C135     1.0000 0.29430  0.35060  0.73120  Biso   1.000  C
  C136     1.0000 0.49350  0.35963  0.70280  Biso   1.000  C
  C137     1.0000 0.54510  0.38629  0.64330  Biso   1.000  C
  C138     1.0000 0.47020  0.44430  0.51840  Biso   1.000  C
  C139     1.0000 0.25920  0.37580  0.90910  Biso   1.000  C
  C140     1.0000 0.20830  0.40962  0.94150  Biso   1.000  C
  C141     1.0000 0.11540  0.47066  0.83780  Biso   1.000  C
  O24      1.0000 0.06150  0.37932  0.57910  Biso   1.000  O
  C142     1.0000 0.88320  0.40138  0.61000  Biso   1.000  C
  H107     1.0000 0.31690  0.32520  0.76730  Biso   1.000  H
  H108     1.0000 0.23480  0.34440  0.67550  Biso   1.000  H
  C143     1.0000 0.54200  0.32830  0.77670  Biso   1.000  C
  C144     1.0000 0.66280  0.39047  0.63580  Biso   1.000  C
  H109     1.0000 0.47250  0.46960  0.55750  Biso   1.000  H
  H110     1.0000 0.53710  0.44160  0.48480  Biso   1.000  H
  H111     1.0000 0.40690  0.44440  0.46520  Biso   1.000  H
  C145     1.0000 0.31320  0.34170  0.97090  Biso   1.000  C
  C146     1.0000 0.19080  0.41988  0.04850  Biso   1.000  C
  H112     1.0000 0.04860  0.46770  0.78960  Biso   1.000  H
  H113     1.0000 0.09680  0.47940  0.90590  Biso   1.000  H
  H114     1.0000 0.16290  0.49070  0.81050  Biso   1.000  H
  C147     1.0000 0.82080  0.43327  0.64340  Biso   1.000  C
  C148     1.0000 0.83530  0.36409  0.59410  Biso   1.000  C
  H115     1.0000 0.50700  0.30230  0.75920  Biso   1.000  H
  H116     1.0000 0.62040  0.32610  0.77150  Biso   1.000  H
  H117     1.0000 0.53060  0.33580  0.84790  Biso   1.000  H
  C149     1.0000 0.71460  0.42747  0.65600  Biso   1.000  C
  C150     1.0000 0.72570  0.35843  0.60830  Biso   1.000  C
  H118     1.0000 0.39240  0.34360  0.97120  Biso   1.000  H
  H119     1.0000 0.29490  0.34300  0.04260  Biso   1.000  H
  H120     1.0000 0.28760  0.31610  0.93940  Biso   1.000  H
  C151     1.0000 0.08650  0.43250  0.07250  Biso   1.000  C
  C152     1.0000 0.27650  0.41660  0.12610  Biso   1.000  C
  H121     1.0000 0.85330  0.45890  0.65720  Biso   1.000  H
  H122     1.0000 0.87700  0.34210  0.57340  Biso   1.000  H
  H123     1.0000 0.67390  0.44930  0.67930  Biso   1.000  H
  H124     1.0000 0.69400  0.33250  0.59910  Biso   1.000  H
  H125     1.0000 0.02640  0.43380  0.01970  Biso   1.000  H
  C153     1.0000 0.07410  0.44280  0.17500  Biso   1.000  C
  C154     1.0000 0.26290  0.42770  0.22810  Biso   1.000  C
  H126     1.0000 0.34510  0.40680  0.11040  Biso   1.000  H
  C155     1.0000 0.16350  0.43889  0.25560  Biso   1.000  C
  H127     1.0000 0.00580  0.45250  0.19160  Biso   1.000  H
  H128     1.0000 0.32430  0.42740  0.27970  Biso   1.000  H
  C156     1.0000 0.14680  0.44925  0.36460  Biso   1.000  C
  C157     1.0000 0.20450  0.45990  0.09030  Biso   1.000  C
  H129     1.0000 0.22480  0.48110  0.04710  Biso   1.000  H
  C158     1.0000 0.16530  0.39860  0.22580  Biso   1.000  C
  H130     1.0000 0.16060  0.37780  0.27540  Biso   1.000  H
  C159     1.0000 0.18840  0.46810  0.19350  Biso   1.000  C
  H131     1.0000 0.19540  0.49490  0.21910  Biso   1.000  H
  C160     1.0000 0.17400  0.38960  0.12370  Biso   1.000  C
  H132     1.0000 0.16890  0.36230  0.10210  Biso   1.000  H
  Fe1      1.0000 0.75270  0.75000  0.72410  Biso   1.000  Fe
  Cl1      1.0000 0.85450  0.75000  0.90360  Biso   1.000  Cl
  C161     1.0000 0.56930  0.75000  0.91350  Biso   1.000  C
  H133     1.0000 0.51400  0.75000  0.96310  Biso   1.000  H
  H134     1.0000 0.64300  0.75000  0.95290  Biso   1.000  H
  Fe2      1.0000 0.24730  0.25000  0.27590  Biso   1.000  Fe
  Cl2      1.0000 0.14550  0.25000  0.09640  Biso   1.000  Cl
  C162     1.0000 0.43070  0.25000  0.08650  Biso   1.000  C
  H135     1.0000 0.48600  0.25000  0.03690  Biso   1.000  H
  H136     1.0000 0.35700  0.25000  0.04710  Biso   1.000  H
  Mn5      1.0000 0.00000  0.00000  0.50000  Biso   1.000  Mn
  Mn6      1.0000 0.00000  0.50000  0.50000  Biso   1.000  Mn
