data_image0
_cell_length_a       22.909
_cell_length_b       30.1561
_cell_length_c       27.7203
_cell_angle_alpha    90
_cell_angle_beta     111.637
_cell_angle_gamma    90

_symmetry_space_group_name_H-M    "P 1"
_symmetry_int_tables_number       1

loop_
  _symmetry_equiv_pos_as_xyz
  'x, y, z'

loop_
  _atom_site_label
  _atom_site_occupancy
  _atom_site_fract_x
  _atom_site_fract_y
  _atom_site_fract_z
  _atom_site_thermal_displace_type
  _atom_site_B_iso_or_equiv
  _atom_site_type_symbol
  Pr1      1.0000 0.40996  0.34651  0.87959  Biso   1.000  Pr
  Pr2      1.0000 0.71138  0.34779  0.88927  Biso   1.000  Pr
  W1       1.0000 0.74995  0.54267  0.81156  Biso   1.000  W
  W2       1.0000 0.55669  0.55152  0.88100  Biso   1.000  W
  W3       1.0000 0.14112  0.24025  0.88117  Biso   1.000  W
  W4       1.0000 0.02108  0.24398  0.61851  Biso   1.000  W
  W5       1.0000 0.29328  0.16261  0.81305  Biso   1.000  W
  W6       1.0000 0.19029  0.12243  0.88032  Biso   1.000  W
  W7       1.0000 0.07191  0.12683  0.61838  Biso   1.000  W
  W8       1.0000 0.45387  0.46083  0.81355  Biso   1.000  W
  W9       1.0000 0.17831  0.03477  0.68381  Biso   1.000  W
  W10      1.0000 0.23803  0.15088  0.68476  Biso   1.000  W
  W11      1.0000 0.23916  0.28155  0.81319  Biso   1.000  W
  W12      1.0000 0.18973  0.27191  0.68509  Biso   1.000  W
  W13      1.0000 0.06259  0.34956  0.68612  Biso   1.000  W
  W14      1.0000 0.61875  0.46713  0.81417  Biso   1.000  W
  W15      1.0000 0.10291  0.34962  0.81440  Biso   1.000  W
  P1       1.0000 0.08890  0.25042  0.74960  Biso   1.000  P
  P2       1.0000 0.14353  0.12200  0.74949  Biso   1.000  P
  Na1      1.0000 0.97650  0.15650  0.69750  Biso   1.000  Na
  K1       1.0000 0.83890  0.99499  0.46916  Biso   1.000  K
  K2       1.0000 0.29920  0.28699  0.96000  Biso   1.000  K
  C1       1.0000 0.78460  0.30460  0.00960  Biso   1.000  C
  C2       1.0000 0.71660  0.30360  0.00580  Biso   1.000  C
  C3       1.0000 0.69980  0.28770  0.04570  Biso   1.000  C
  H1       1.0000 0.73030  0.27720  0.07730  Biso   1.000  H
  C4       1.0000 0.63580  0.28770  0.03720  Biso   1.000  C
  H2       1.0000 0.62190  0.27830  0.06390  Biso   1.000  H
  C5       1.0000 0.59220  0.30150  0.98970  Biso   1.000  C
  H3       1.0000 0.54840  0.30050  0.98270  Biso   1.000  H
  C6       1.0000 0.61470  0.31660  0.95350  Biso   1.000  C
  C7       1.0000 0.57260  0.33300  0.90040  Biso   1.000  C
  C8       1.0000 0.29980  0.38500  0.76580  Biso   1.000  C
  C9       1.0000 0.24810  0.40650  0.73200  Biso   1.000  C
  H4       1.0000 0.23910  0.40520  0.69580  Biso   1.000  H
  C10      1.0000 0.20940  0.43000  0.75060  Biso   1.000  C
  H5       1.0000 0.17310  0.44460  0.72740  Biso   1.000  H
  C11      1.0000 0.22420  0.43190  0.80320  Biso   1.000  C
  H6       1.0000 0.19760  0.44740  0.81690  Biso   1.000  H
  C12      1.0000 0.27800  0.41110  0.83640  Biso   1.000  C
  C13      1.0000 0.29890  0.41100  0.89470  Biso   1.000  C
  C14      1.0000 0.34070  0.35550  0.75040  Biso   1.000  C
  N1       1.0000 0.67560  0.31780  0.96010  Biso   1.000  N
  N2       1.0000 0.31560  0.38830  0.81740  Biso   1.000  N
  O1       1.0000 0.13630  0.32590  0.68900  Biso   1.000  O
  O2       1.0000 0.09300  0.38040  0.75080  Biso   1.000  O
  O3       1.0000 0.02310  0.35810  0.80900  Biso   1.000  O
  O4       1.0000 0.18210  0.25220  0.94550  Biso   1.000  O
  O5       1.0000 0.11670  0.30090  0.85890  Biso   1.000  O
  O6       1.0000 0.06130  0.23270  0.88510  Biso   1.000  O
  O7       1.0000 0.18790  0.32690  0.81070  Biso   1.000  O
  O8       1.0000 0.21030  0.25000  0.85860  Biso   1.000  O
  O9       1.0000 0.08920  0.22690  0.79810  Biso   1.000  O
  O10      1.0000 0.06910  0.30020  0.74940  Biso   1.000  O
  O11      1.0000 0.15710  0.25060  0.74940  Biso   1.000  O
  O12      1.0000 0.15390  0.17930  0.88360  Biso   1.000  O
  O13      1.0000 0.11070  0.25140  0.64020  Biso   1.000  O
  O14      1.0000 0.22690  0.21800  0.68990  Biso   1.000  O
  O15      1.0000 0.30700  0.15850  0.74880  Biso   1.000  O
  O16      1.0000 0.15260  0.15350  0.64020  Biso   1.000  O
  O17      1.0000 0.23270  0.09140  0.68770  Biso   1.000  O
  O18      1.0000 0.01820  0.30330  0.63950  Biso   1.000  O
  O19      1.0000 0.04510  0.22830  0.70080  Biso   1.000  O
  O20      1.0000 0.03330  0.18170  0.61500  Biso   1.000  O
  O21      1.0000 0.20530  0.01110  0.63980  Biso   1.000  O
  O22      1.0000 0.11480  0.07130  0.64050  Biso   1.000  O
  O23      1.0000 0.37380  0.49270  0.80940  Biso   1.000  O
  O24      1.0000 0.50260  0.59690  0.88370  Biso   1.000  O
  O25      1.0000 0.59530  0.43380  0.75080  Biso   1.000  O
  O26      1.0000 0.44610  0.41940  0.85390  Biso   1.000  O
  O27      1.0000 0.49120  0.50800  0.86060  Biso   1.000  O
  O28      1.0000 0.58560  0.53810  0.94570  Biso   1.000  O
  O29      1.0000 0.53010  0.44690  0.81220  Biso   1.000  O
  O30      1.0000 0.60680  0.50860  0.85980  Biso   1.000  O
  O31      1.0000 0.61920  0.59520  0.88490  Biso   1.000  O
  O32      1.0000 0.47890  0.56870  0.70110  Biso   1.000  O
  O33      1.0000 0.55470  0.50960  0.74980  Biso   1.000  O
  O34      1.0000 0.12960  0.13040  0.79860  Biso   1.000  O
  O35      1.0000 0.65880  0.42510  0.85620  Biso   1.000  O
  O36      1.0000 0.68280  0.49580  0.80670  Biso   1.000  O
  O37      1.0000 0.71590  0.56940  0.85800  Biso   1.000  O
  O38      1.0000 0.25110  0.15290  0.85820  Biso   1.000  O
  O39      1.0000 0.74730  0.52030  0.74690  Biso   1.000  O
  O40      1.0000 0.29020  0.09430  0.80920  Biso   1.000  O
  O41      1.0000 0.27900  0.22200  0.80750  Biso   1.000  O
  O42      1.0000 0.19890  0.15180  0.74930  Biso   1.000  O
  O43      1.0000 0.08520  0.13140  0.70090  Biso   1.000  O
  O44      1.0000 0.31030  0.30240  0.85650  Biso   1.000  O
  O45      1.0000 0.21840  0.29880  0.64360  Biso   1.000  O
  O46      1.0000 0.51510  0.33000  0.88860  Biso   1.000  O
  O47      1.0000 0.26830  0.43140  0.91610  Biso   1.000  O
  O48      1.0000 0.34750  0.38840  0.91800  Biso   1.000  O
  O49      1.0000 0.38730  0.33670  0.78580  Biso   1.000  O
  O50      1.0000 0.33080  0.34880  0.70330  Biso   1.000  O
  O51      1.0000 0.79280  0.31780  0.96980  Biso   1.000  O
  O52      1.0000 0.82640  0.29160  0.05090  Biso   1.000  O
  O53      1.0000 0.59800  0.34900  0.87090  Biso   1.000  O
  O54      1.0000 0.24930  0.29340  0.74880  Biso   1.000  O
  O55      1.0000 0.16420  0.07340  0.74880  Biso   1.000  O
  O56      1.0000 0.66800  0.26800  0.86970  Biso   1.000  O
  O57      1.0000 0.42560  0.30280  0.96100  Biso   1.000  O
  K3       1.0000 0.36600  0.24630  0.73640  Biso   1.000  K
  Na2      1.0000 0.46720  0.20910  0.74380  Biso   1.000  Na
  O58      1.0000 0.48300  0.26960  0.69700  Biso   1.000  O
  O59      1.0000 0.47710  0.24250  0.67280  Biso   1.000  O
  O60      1.0000 0.44570  0.16730  0.76480  Biso   1.000  O
  O61      1.0000 0.45800  0.14230  0.80300  Biso   1.000  O
  Pr3      1.0000 0.90996  0.84651  0.87959  Biso   1.000  Pr
  Pr4      1.0000 0.21138  0.84779  0.88927  Biso   1.000  Pr
  W16      1.0000 0.24995  0.04267  0.81156  Biso   1.000  W
  W17      1.0000 0.05669  0.05152  0.88100  Biso   1.000  W
  W18      1.0000 0.64112  0.74025  0.88117  Biso   1.000  W
  W19      1.0000 0.52108  0.74398  0.61851  Biso   1.000  W
  W20      1.0000 0.79328  0.66261  0.81305  Biso   1.000  W
  W21      1.0000 0.69029  0.62243  0.88032  Biso   1.000  W
  W22      1.0000 0.57191  0.62683  0.61838  Biso   1.000  W
  W23      1.0000 0.95387  0.96083  0.81355  Biso   1.000  W
  W24      1.0000 0.67831  0.53477  0.68381  Biso   1.000  W
  W25      1.0000 0.73803  0.65088  0.68476  Biso   1.000  W
  W26      1.0000 0.73916  0.78155  0.81319  Biso   1.000  W
  W27      1.0000 0.68973  0.77191  0.68509  Biso   1.000  W
  W28      1.0000 0.56259  0.84956  0.68612  Biso   1.000  W
  W29      1.0000 0.11875  0.96713  0.81417  Biso   1.000  W
  W30      1.0000 0.60291  0.84962  0.81440  Biso   1.000  W
  P3       1.0000 0.58890  0.75042  0.74960  Biso   1.000  P
  P4       1.0000 0.64353  0.62200  0.74949  Biso   1.000  P
  Na3      1.0000 0.47650  0.65650  0.69750  Biso   1.000  Na
  K4       1.0000 0.33890  0.49499  0.46916  Biso   1.000  K
  K5       1.0000 0.79920  0.78699  0.96000  Biso   1.000  K
  C15      1.0000 0.28460  0.80460  0.00960  Biso   1.000  C
  C16      1.0000 0.21660  0.80360  0.00580  Biso   1.000  C
  C17      1.0000 0.19980  0.78770  0.04570  Biso   1.000  C
  H7       1.0000 0.23030  0.77720  0.07730  Biso   1.000  H
  C18      1.0000 0.13580  0.78770  0.03720  Biso   1.000  C
  H8       1.0000 0.12190  0.77830  0.06390  Biso   1.000  H
  C19      1.0000 0.09220  0.80150  0.98970  Biso   1.000  C
  H9       1.0000 0.04840  0.80050  0.98270  Biso   1.000  H
  C20      1.0000 0.11470  0.81660  0.95350  Biso   1.000  C
  C21      1.0000 0.07260  0.83300  0.90040  Biso   1.000  C
  C22      1.0000 0.79980  0.88500  0.76580  Biso   1.000  C
  C23      1.0000 0.74810  0.90650  0.73200  Biso   1.000  C
  H10      1.0000 0.73910  0.90520  0.69580  Biso   1.000  H
  C24      1.0000 0.70940  0.93000  0.75060  Biso   1.000  C
  H11      1.0000 0.67310  0.94460  0.72740  Biso   1.000  H
  C25      1.0000 0.72420  0.93190  0.80320  Biso   1.000  C
  H12      1.0000 0.69760  0.94740  0.81690  Biso   1.000  H
  C26      1.0000 0.77800  0.91110  0.83640  Biso   1.000  C
  C27      1.0000 0.79890  0.91100  0.89470  Biso   1.000  C
  C28      1.0000 0.84070  0.85550  0.75040  Biso   1.000  C
  N3       1.0000 0.17560  0.81780  0.96010  Biso   1.000  N
  N4       1.0000 0.81560  0.88830  0.81740  Biso   1.000  N
  O62      1.0000 0.63630  0.82590  0.68900  Biso   1.000  O
  O63      1.0000 0.59300  0.88040  0.75080  Biso   1.000  O
  O64      1.0000 0.52310  0.85810  0.80900  Biso   1.000  O
  O65      1.0000 0.68210  0.75220  0.94550  Biso   1.000  O
  O66      1.0000 0.61670  0.80090  0.85890  Biso   1.000  O
  O67      1.0000 0.56130  0.73270  0.88510  Biso   1.000  O
  O68      1.0000 0.68790  0.82690  0.81070  Biso   1.000  O
  O69      1.0000 0.71030  0.75000  0.85860  Biso   1.000  O
  O70      1.0000 0.58920  0.72690  0.79810  Biso   1.000  O
  O71      1.0000 0.56910  0.80020  0.74940  Biso   1.000  O
  O72      1.0000 0.65710  0.75060  0.74940  Biso   1.000  O
  O73      1.0000 0.65390  0.67930  0.88360  Biso   1.000  O
  O74      1.0000 0.61070  0.75140  0.64020  Biso   1.000  O
  O75      1.0000 0.72690  0.71800  0.68990  Biso   1.000  O
  O76      1.0000 0.80700  0.65850  0.74880  Biso   1.000  O
  O77      1.0000 0.65260  0.65350  0.64020  Biso   1.000  O
  O78      1.0000 0.73270  0.59140  0.68770  Biso   1.000  O
  O79      1.0000 0.51820  0.80330  0.63950  Biso   1.000  O
  O80      1.0000 0.54510  0.72830  0.70080  Biso   1.000  O
  O81      1.0000 0.53330  0.68170  0.61500  Biso   1.000  O
  O82      1.0000 0.70530  0.51110  0.63980  Biso   1.000  O
  O83      1.0000 0.61480  0.57130  0.64050  Biso   1.000  O
  O84      1.0000 0.87380  0.99270  0.80940  Biso   1.000  O
  O85      1.0000 0.00260  0.09690  0.88370  Biso   1.000  O
  O86      1.0000 0.09530  0.93380  0.75080  Biso   1.000  O
  O87      1.0000 0.94610  0.91940  0.85390  Biso   1.000  O
  O88      1.0000 0.99120  0.00800  0.86060  Biso   1.000  O
  O89      1.0000 0.08560  0.03810  0.94570  Biso   1.000  O
  O90      1.0000 0.03010  0.94690  0.81220  Biso   1.000  O
  O91      1.0000 0.10680  0.00860  0.85980  Biso   1.000  O
  O92      1.0000 0.11920  0.09520  0.88490  Biso   1.000  O
  O93      1.0000 0.97890  0.06870  0.70110  Biso   1.000  O
  O94      1.0000 0.05470  0.00960  0.74980  Biso   1.000  O
  O95      1.0000 0.62960  0.63040  0.79860  Biso   1.000  O
  O96      1.0000 0.15880  0.92510  0.85620  Biso   1.000  O
  O97      1.0000 0.18280  0.99580  0.80670  Biso   1.000  O
  O98      1.0000 0.21590  0.06940  0.85800  Biso   1.000  O
  O99      1.0000 0.75110  0.65290  0.85820  Biso   1.000  O
  O100     1.0000 0.24730  0.02030  0.74690  Biso   1.000  O
  O101     1.0000 0.79020  0.59430  0.80920  Biso   1.000  O
  O102     1.0000 0.77900  0.72200  0.80750  Biso   1.000  O
  O103     1.0000 0.69890  0.65180  0.74930  Biso   1.000  O
  O104     1.0000 0.58520  0.63140  0.70090  Biso   1.000  O
  O105     1.0000 0.81030  0.80240  0.85650  Biso   1.000  O
  O106     1.0000 0.71840  0.79880  0.64360  Biso   1.000  O
  O107     1.0000 0.01510  0.83000  0.88860  Biso   1.000  O
  O108     1.0000 0.76830  0.93140  0.91610  Biso   1.000  O
  O109     1.0000 0.84750  0.88840  0.91800  Biso   1.000  O
  O110     1.0000 0.88730  0.83670  0.78580  Biso   1.000  O
  O111     1.0000 0.83080  0.84880  0.70330  Biso   1.000  O
  O112     1.0000 0.29280  0.81780  0.96980  Biso   1.000  O
  O113     1.0000 0.32640  0.79160  0.05090  Biso   1.000  O
  O114     1.0000 0.09800  0.84900  0.87090  Biso   1.000  O
  O115     1.0000 0.74930  0.79340  0.74880  Biso   1.000  O
  O116     1.0000 0.66420  0.57340  0.74880  Biso   1.000  O
  O117     1.0000 0.16800  0.76800  0.86970  Biso   1.000  O
  O118     1.0000 0.92560  0.80280  0.96100  Biso   1.000  O
  K6       1.0000 0.86600  0.74630  0.73640  Biso   1.000  K
  Na4      1.0000 0.96720  0.70910  0.74380  Biso   1.000  Na
  O119     1.0000 0.98300  0.76960  0.69700  Biso   1.000  O
  O120     1.0000 0.97710  0.74250  0.67280  Biso   1.000  O
  O121     1.0000 0.94570  0.66730  0.76480  Biso   1.000  O
  O122     1.0000 0.95800  0.64230  0.80300  Biso   1.000  O
  Pr5      1.0000 0.59004  0.34651  0.62041  Biso   1.000  Pr
  Pr6      1.0000 0.28862  0.34779  0.61073  Biso   1.000  Pr
  W31      1.0000 0.25005  0.54267  0.68844  Biso   1.000  W
  W32      1.0000 0.44331  0.55152  0.61900  Biso   1.000  W
  W33      1.0000 0.85888  0.24025  0.61883  Biso   1.000  W
  W34      1.0000 0.97892  0.24398  0.88149  Biso   1.000  W
  W35      1.0000 0.70672  0.16261  0.68695  Biso   1.000  W
  W36      1.0000 0.80971  0.12243  0.61968  Biso   1.000  W
  W37      1.0000 0.92809  0.12683  0.88162  Biso   1.000  W
  W38      1.0000 0.54613  0.46083  0.68645  Biso   1.000  W
  W39      1.0000 0.82169  0.03477  0.81618  Biso   1.000  W
  W40      1.0000 0.76197  0.15088  0.81524  Biso   1.000  W
  W41      1.0000 0.76084  0.28155  0.68681  Biso   1.000  W
  W42      1.0000 0.81027  0.27191  0.81491  Biso   1.000  W
  W43      1.0000 0.93741  0.34956  0.81388  Biso   1.000  W
  W44      1.0000 0.38125  0.46713  0.68583  Biso   1.000  W
  W45      1.0000 0.89709  0.34962  0.68559  Biso   1.000  W
  P5       1.0000 0.91110  0.25042  0.75040  Biso   1.000  P
  P6       1.0000 0.85647  0.12200  0.75051  Biso   1.000  P
  K7       1.0000 0.16110  0.99499  0.03084  Biso   1.000  K
  K8       1.0000 0.70080  0.28699  0.54000  Biso   1.000  K
  C29      1.0000 0.21540  0.30460  0.49040  Biso   1.000  C
  C30      1.0000 0.28340  0.30360  0.49420  Biso   1.000  C
  C31      1.0000 0.30020  0.28770  0.45430  Biso   1.000  C
  H13      1.0000 0.26970  0.27720  0.42270  Biso   1.000  H
  C32      1.0000 0.36420  0.28770  0.46280  Biso   1.000  C
  H14      1.0000 0.37810  0.27830  0.43610  Biso   1.000  H
  C33      1.0000 0.40780  0.30150  0.51030  Biso   1.000  C
  H15      1.0000 0.45160  0.30050  0.51730  Biso   1.000  H
  C34      1.0000 0.38530  0.31660  0.54650  Biso   1.000  C
  C35      1.0000 0.42740  0.33300  0.59960  Biso   1.000  C
  C36      1.0000 0.70020  0.38500  0.73420  Biso   1.000  C
  C37      1.0000 0.75190  0.40650  0.76800  Biso   1.000  C
  H16      1.0000 0.76090  0.40520  0.80420  Biso   1.000  H
  C38      1.0000 0.79060  0.43000  0.74940  Biso   1.000  C
  H17      1.0000 0.82690  0.44460  0.77260  Biso   1.000  H
  C39      1.0000 0.77580  0.43190  0.69680  Biso   1.000  C
  H18      1.0000 0.80240  0.44740  0.68310  Biso   1.000  H
  C40      1.0000 0.72200  0.41110  0.66360  Biso   1.000  C
  C41      1.0000 0.70110  0.41100  0.60530  Biso   1.000  C
  C42      1.0000 0.65930  0.35550  0.74960  Biso   1.000  C
  N5       1.0000 0.32440  0.31780  0.53990  Biso   1.000  N
  N6       1.0000 0.68440  0.38830  0.68260  Biso   1.000  N
  O123     1.0000 0.86370  0.32590  0.81100  Biso   1.000  O
  O124     1.0000 0.90700  0.38040  0.74920  Biso   1.000  O
  O125     1.0000 0.97690  0.35810  0.69100  Biso   1.000  O
  O126     1.0000 0.81790  0.25220  0.55450  Biso   1.000  O
  O127     1.0000 0.88330  0.30090  0.64110  Biso   1.000  O
  O128     1.0000 0.93870  0.23270  0.61490  Biso   1.000  O
  O129     1.0000 0.81210  0.32690  0.68930  Biso   1.000  O
  O130     1.0000 0.78970  0.25000  0.64140  Biso   1.000  O
  O131     1.0000 0.91080  0.22690  0.70190  Biso   1.000  O
  O132     1.0000 0.93090  0.30020  0.75060  Biso   1.000  O
  O133     1.0000 0.84290  0.25060  0.75060  Biso   1.000  O
  O134     1.0000 0.84610  0.17930  0.61640  Biso   1.000  O
  O135     1.0000 0.88930  0.25140  0.85980  Biso   1.000  O
  O136     1.0000 0.77310  0.21800  0.81010  Biso   1.000  O
  O137     1.0000 0.69300  0.15850  0.75120  Biso   1.000  O
  O138     1.0000 0.84740  0.15350  0.85980  Biso   1.000  O
  O139     1.0000 0.76730  0.09140  0.81230  Biso   1.000  O
  O140     1.0000 0.98180  0.30330  0.86050  Biso   1.000  O
  O141     1.0000 0.95490  0.22830  0.79920  Biso   1.000  O
  O142     1.0000 0.96670  0.18170  0.88500  Biso   1.000  O
  O143     1.0000 0.79470  0.01110  0.86020  Biso   1.000  O
  O144     1.0000 0.88520  0.07130  0.85950  Biso   1.000  O
  O145     1.0000 0.62620  0.49270  0.69060  Biso   1.000  O
  O146     1.0000 0.49740  0.59690  0.61630  Biso   1.000  O
  O147     1.0000 0.40470  0.43380  0.74920  Biso   1.000  O
  O148     1.0000 0.55390  0.41940  0.64610  Biso   1.000  O
  O149     1.0000 0.50880  0.50800  0.63940  Biso   1.000  O
  O150     1.0000 0.41440  0.53810  0.55430  Biso   1.000  O
  O151     1.0000 0.46990  0.44690  0.68780  Biso   1.000  O
  O152     1.0000 0.39320  0.50860  0.64020  Biso   1.000  O
  O153     1.0000 0.38080  0.59520  0.61510  Biso   1.000  O
  O154     1.0000 0.52110  0.56870  0.79890  Biso   1.000  O
  O155     1.0000 0.44530  0.50960  0.75020  Biso   1.000  O
  O156     1.0000 0.87040  0.13040  0.70140  Biso   1.000  O
  O157     1.0000 0.34120  0.42510  0.64380  Biso   1.000  O
  O158     1.0000 0.31720  0.49580  0.69330  Biso   1.000  O
  O159     1.0000 0.28410  0.56940  0.64200  Biso   1.000  O
  O160     1.0000 0.74890  0.15290  0.64180  Biso   1.000  O
  O161     1.0000 0.25270  0.52030  0.75310  Biso   1.000  O
  O162     1.0000 0.70980  0.09430  0.69080  Biso   1.000  O
  O163     1.0000 0.72100  0.22200  0.69250  Biso   1.000  O
  O164     1.0000 0.80110  0.15180  0.75070  Biso   1.000  O
  O165     1.0000 0.91480  0.13140  0.79910  Biso   1.000  O
  O166     1.0000 0.68970  0.30240  0.64350  Biso   1.000  O
  O167     1.0000 0.78160  0.29880  0.85640  Biso   1.000  O
  O168     1.0000 0.48490  0.33000  0.61140  Biso   1.000  O
  O169     1.0000 0.73170  0.43140  0.58390  Biso   1.000  O
  O170     1.0000 0.65250  0.38840  0.58200  Biso   1.000  O
  O171     1.0000 0.61270  0.33670  0.71420  Biso   1.000  O
  O172     1.0000 0.66920  0.34880  0.79670  Biso   1.000  O
  O173     1.0000 0.20720  0.31780  0.53020  Biso   1.000  O
  O174     1.0000 0.17360  0.29160  0.44910  Biso   1.000  O
  O175     1.0000 0.40200  0.34900  0.62910  Biso   1.000  O
  O176     1.0000 0.75070  0.29340  0.75120  Biso   1.000  O
  O177     1.0000 0.83580  0.07340  0.75120  Biso   1.000  O
  O178     1.0000 0.33200  0.26800  0.63030  Biso   1.000  O
  O179     1.0000 0.57440  0.30280  0.53900  Biso   1.000  O
  K9       1.0000 0.63400  0.24630  0.76360  Biso   1.000  K
  Na5      1.0000 0.53280  0.20910  0.75620  Biso   1.000  Na
  O180     1.0000 0.51700  0.26960  0.80300  Biso   1.000  O
  O181     1.0000 0.52290  0.24250  0.82720  Biso   1.000  O
  O182     1.0000 0.55430  0.16730  0.73520  Biso   1.000  O
  O183     1.0000 0.54200  0.14230  0.69700  Biso   1.000  O
  Pr7      1.0000 0.09004  0.84651  0.62041  Biso   1.000  Pr
  Pr8      1.0000 0.78862  0.84779  0.61073  Biso   1.000  Pr
  W46      1.0000 0.75005  0.04267  0.68844  Biso   1.000  W
  W47      1.0000 0.94331  0.05152  0.61900  Biso   1.000  W
  W48      1.0000 0.35888  0.74025  0.61883  Biso   1.000  W
  W49      1.0000 0.47892  0.74398  0.88149  Biso   1.000  W
  W50      1.0000 0.20672  0.66261  0.68695  Biso   1.000  W
  W51      1.0000 0.30971  0.62243  0.61968  Biso   1.000  W
  W52      1.0000 0.42809  0.62683  0.88162  Biso   1.000  W
  W53      1.0000 0.04613  0.96083  0.68645  Biso   1.000  W
  W54      1.0000 0.32169  0.53477  0.81618  Biso   1.000  W
  W55      1.0000 0.26197  0.65088  0.81524  Biso   1.000  W
  W56      1.0000 0.26084  0.78155  0.68681  Biso   1.000  W
  W57      1.0000 0.31027  0.77191  0.81491  Biso   1.000  W
  W58      1.0000 0.43741  0.84956  0.81388  Biso   1.000  W
  W59      1.0000 0.88125  0.96713  0.68583  Biso   1.000  W
  W60      1.0000 0.39709  0.84962  0.68559  Biso   1.000  W
  P7       1.0000 0.41110  0.75042  0.75040  Biso   1.000  P
  P8       1.0000 0.35647  0.62200  0.75051  Biso   1.000  P
  K10      1.0000 0.66110  0.49499  0.03084  Biso   1.000  K
  K11      1.0000 0.20080  0.78699  0.54000  Biso   1.000  K
  C43      1.0000 0.71540  0.80460  0.49040  Biso   1.000  C
  C44      1.0000 0.78340  0.80360  0.49420  Biso   1.000  C
  C45      1.0000 0.80020  0.78770  0.45430  Biso   1.000  C
  H19      1.0000 0.76970  0.77720  0.42270  Biso   1.000  H
  C46      1.0000 0.86420  0.78770  0.46280  Biso   1.000  C
  H20      1.0000 0.87810  0.77830  0.43610  Biso   1.000  H
  C47      1.0000 0.90780  0.80150  0.51030  Biso   1.000  C
  H21      1.0000 0.95160  0.80050  0.51730  Biso   1.000  H
  C48      1.0000 0.88530  0.81660  0.54650  Biso   1.000  C
  C49      1.0000 0.92740  0.83300  0.59960  Biso   1.000  C
  C50      1.0000 0.20020  0.88500  0.73420  Biso   1.000  C
  C51      1.0000 0.25190  0.90650  0.76800  Biso   1.000  C
  H22      1.0000 0.26090  0.90520  0.80420  Biso   1.000  H
  C52      1.0000 0.29060  0.93000  0.74940  Biso   1.000  C
  H23      1.0000 0.32690  0.94460  0.77260  Biso   1.000  H
  C53      1.0000 0.27580  0.93190  0.69680  Biso   1.000  C
  H24      1.0000 0.30240  0.94740  0.68310  Biso   1.000  H
  C54      1.0000 0.22200  0.91110  0.66360  Biso   1.000  C
  C55      1.0000 0.20110  0.91100  0.60530  Biso   1.000  C
  C56      1.0000 0.15930  0.85550  0.74960  Biso   1.000  C
  N7       1.0000 0.82440  0.81780  0.53990  Biso   1.000  N
  N8       1.0000 0.18440  0.88830  0.68260  Biso   1.000  N
  O184     1.0000 0.36370  0.82590  0.81100  Biso   1.000  O
  O185     1.0000 0.40700  0.88040  0.74920  Biso   1.000  O
  O186     1.0000 0.47690  0.85810  0.69100  Biso   1.000  O
  O187     1.0000 0.31790  0.75220  0.55450  Biso   1.000  O
  O188     1.0000 0.38330  0.80090  0.64110  Biso   1.000  O
  O189     1.0000 0.43870  0.73270  0.61490  Biso   1.000  O
  O190     1.0000 0.31210  0.82690  0.68930  Biso   1.000  O
  O191     1.0000 0.28970  0.75000  0.64140  Biso   1.000  O
  O192     1.0000 0.41080  0.72690  0.70190  Biso   1.000  O
  O193     1.0000 0.43090  0.80020  0.75060  Biso   1.000  O
  O194     1.0000 0.34290  0.75060  0.75060  Biso   1.000  O
  O195     1.0000 0.34610  0.67930  0.61640  Biso   1.000  O
  O196     1.0000 0.38930  0.75140  0.85980  Biso   1.000  O
  O197     1.0000 0.27310  0.71800  0.81010  Biso   1.000  O
  O198     1.0000 0.19300  0.65850  0.75120  Biso   1.000  O
  O199     1.0000 0.34740  0.65350  0.85980  Biso   1.000  O
  O200     1.0000 0.26730  0.59140  0.81230  Biso   1.000  O
  O201     1.0000 0.48180  0.80330  0.86050  Biso   1.000  O
  O202     1.0000 0.45490  0.72830  0.79920  Biso   1.000  O
  O203     1.0000 0.46670  0.68170  0.88500  Biso   1.000  O
  O204     1.0000 0.29470  0.51110  0.86020  Biso   1.000  O
  O205     1.0000 0.38520  0.57130  0.85950  Biso   1.000  O
  O206     1.0000 0.12620  0.99270  0.69060  Biso   1.000  O
  O207     1.0000 0.99740  0.09690  0.61630  Biso   1.000  O
  O208     1.0000 0.90470  0.93380  0.74920  Biso   1.000  O
  O209     1.0000 0.05390  0.91940  0.64610  Biso   1.000  O
  O210     1.0000 0.00880  0.00800  0.63940  Biso   1.000  O
  O211     1.0000 0.91440  0.03810  0.55430  Biso   1.000  O
  O212     1.0000 0.96990  0.94690  0.68780  Biso   1.000  O
  O213     1.0000 0.89320  0.00860  0.64020  Biso   1.000  O
  O214     1.0000 0.88080  0.09520  0.61510  Biso   1.000  O
  O215     1.0000 0.02110  0.06870  0.79890  Biso   1.000  O
  O216     1.0000 0.94530  0.00960  0.75020  Biso   1.000  O
  O217     1.0000 0.37040  0.63040  0.70140  Biso   1.000  O
  O218     1.0000 0.84120  0.92510  0.64380  Biso   1.000  O
  O219     1.0000 0.81720  0.99580  0.69330  Biso   1.000  O
  O220     1.0000 0.78410  0.06940  0.64200  Biso   1.000  O
  O221     1.0000 0.24890  0.65290  0.64180  Biso   1.000  O
  O222     1.0000 0.75270  0.02030  0.75310  Biso   1.000  O
  O223     1.0000 0.20980  0.59430  0.69080  Biso   1.000  O
  O224     1.0000 0.22100  0.72200  0.69250  Biso   1.000  O
  O225     1.0000 0.30110  0.65180  0.75070  Biso   1.000  O
  O226     1.0000 0.41480  0.63140  0.79910  Biso   1.000  O
  O227     1.0000 0.18970  0.80240  0.64350  Biso   1.000  O
  O228     1.0000 0.28160  0.79880  0.85640  Biso   1.000  O
  O229     1.0000 0.98490  0.83000  0.61140  Biso   1.000  O
  O230     1.0000 0.23170  0.93140  0.58390  Biso   1.000  O
  O231     1.0000 0.15250  0.88840  0.58200  Biso   1.000  O
  O232     1.0000 0.11270  0.83670  0.71420  Biso   1.000  O
  O233     1.0000 0.16920  0.84880  0.79670  Biso   1.000  O
  O234     1.0000 0.70720  0.81780  0.53020  Biso   1.000  O
  O235     1.0000 0.67360  0.79160  0.44910  Biso   1.000  O
  O236     1.0000 0.90200  0.84900  0.62910  Biso   1.000  O
  O237     1.0000 0.25070  0.79340  0.75120  Biso   1.000  O
  O238     1.0000 0.33580  0.57340  0.75120  Biso   1.000  O
  O239     1.0000 0.83200  0.76800  0.63030  Biso   1.000  O
  O240     1.0000 0.07440  0.80280  0.53900  Biso   1.000  O
  K12      1.0000 0.13400  0.74630  0.76360  Biso   1.000  K
  Na6      1.0000 0.03280  0.70910  0.75620  Biso   1.000  Na
  O241     1.0000 0.01700  0.76960  0.80300  Biso   1.000  O
  O242     1.0000 0.02290  0.74250  0.82720  Biso   1.000  O
  O243     1.0000 0.05430  0.66730  0.73520  Biso   1.000  O
  O244     1.0000 0.04200  0.64230  0.69700  Biso   1.000  O
  Pr9      1.0000 0.59004  0.65349  0.12041  Biso   1.000  Pr
  Pr10     1.0000 0.28862  0.65221  0.11073  Biso   1.000  Pr
  W61      1.0000 0.25005  0.45733  0.18844  Biso   1.000  W
  W62      1.0000 0.44331  0.44848  0.11900  Biso   1.000  W
  W63      1.0000 0.85888  0.75975  0.11883  Biso   1.000  W
  W64      1.0000 0.97892  0.75602  0.38149  Biso   1.000  W
  W65      1.0000 0.70672  0.83739  0.18695  Biso   1.000  W
  W66      1.0000 0.80971  0.87757  0.11968  Biso   1.000  W
  W67      1.0000 0.92809  0.87317  0.38162  Biso   1.000  W
  W68      1.0000 0.54613  0.53917  0.18645  Biso   1.000  W
  W69      1.0000 0.82169  0.96523  0.31618  Biso   1.000  W
  W70      1.0000 0.76197  0.84911  0.31524  Biso   1.000  W
  W71      1.0000 0.76084  0.71845  0.18681  Biso   1.000  W
  W72      1.0000 0.81027  0.72809  0.31491  Biso   1.000  W
  W73      1.0000 0.93741  0.65044  0.31388  Biso   1.000  W
  W74      1.0000 0.38125  0.53287  0.18583  Biso   1.000  W
  W75      1.0000 0.89709  0.65038  0.18560  Biso   1.000  W
  P9       1.0000 0.91110  0.74958  0.25040  Biso   1.000  P
  P10      1.0000 0.85647  0.87800  0.25051  Biso   1.000  P
  Na7      1.0000 0.02350  0.84350  0.30250  Biso   1.000  Na
  K13      1.0000 0.16110  0.00501  0.53084  Biso   1.000  K
  K14      1.0000 0.70080  0.71301  0.04000  Biso   1.000  K
  C57      1.0000 0.21540  0.69540  0.99040  Biso   1.000  C
  C58      1.0000 0.28340  0.69640  0.99420  Biso   1.000  C
  C59      1.0000 0.30020  0.71230  0.95430  Biso   1.000  C
  H25      1.0000 0.26970  0.72280  0.92270  Biso   1.000  H
  C60      1.0000 0.36420  0.71230  0.96280  Biso   1.000  C
  H26      1.0000 0.37810  0.72170  0.93610  Biso   1.000  H
  C61      1.0000 0.40780  0.69850  0.01030  Biso   1.000  C
  H27      1.0000 0.45160  0.69950  0.01730  Biso   1.000  H
  C62      1.0000 0.38530  0.68340  0.04650  Biso   1.000  C
  C63      1.0000 0.42740  0.66700  0.09960  Biso   1.000  C
  C64      1.0000 0.70020  0.61500  0.23420  Biso   1.000  C
  C65      1.0000 0.75190  0.59350  0.26800  Biso   1.000  C
  H28      1.0000 0.76090  0.59480  0.30420  Biso   1.000  H
  C66      1.0000 0.79060  0.57000  0.24940  Biso   1.000  C
  H29      1.0000 0.82690  0.55540  0.27260  Biso   1.000  H
  C67      1.0000 0.77580  0.56810  0.19680  Biso   1.000  C
  H30      1.0000 0.80240  0.55260  0.18310  Biso   1.000  H
  C68      1.0000 0.72200  0.58890  0.16360  Biso   1.000  C
  C69      1.0000 0.70110  0.58900  0.10530  Biso   1.000  C
  C70      1.0000 0.65930  0.64450  0.24960  Biso   1.000  C
  N9       1.0000 0.32440  0.68220  0.03990  Biso   1.000  N
  N10      1.0000 0.68440  0.61170  0.18260  Biso   1.000  N
  O245     1.0000 0.86370  0.67410  0.31100  Biso   1.000  O
  O246     1.0000 0.90700  0.61960  0.24920  Biso   1.000  O
  O247     1.0000 0.97690  0.64190  0.19100  Biso   1.000  O
  O248     1.0000 0.81790  0.74780  0.05450  Biso   1.000  O
  O249     1.0000 0.88330  0.69910  0.14110  Biso   1.000  O
  O250     1.0000 0.93870  0.76730  0.11490  Biso   1.000  O
  O251     1.0000 0.81210  0.67310  0.18930  Biso   1.000  O
  O252     1.0000 0.78970  0.75000  0.14140  Biso   1.000  O
  O253     1.0000 0.91080  0.77310  0.20190  Biso   1.000  O
  O254     1.0000 0.93090  0.69980  0.25060  Biso   1.000  O
  O255     1.0000 0.84290  0.74940  0.25060  Biso   1.000  O
  O256     1.0000 0.84610  0.82070  0.11640  Biso   1.000  O
  O257     1.0000 0.88930  0.74860  0.35980  Biso   1.000  O
  O258     1.0000 0.77310  0.78200  0.31010  Biso   1.000  O
  O259     1.0000 0.69300  0.84150  0.25120  Biso   1.000  O
  O260     1.0000 0.84740  0.84650  0.35980  Biso   1.000  O
  O261     1.0000 0.76730  0.90860  0.31230  Biso   1.000  O
  O262     1.0000 0.98180  0.69670  0.36050  Biso   1.000  O
  O263     1.0000 0.95490  0.77170  0.29920  Biso   1.000  O
  O264     1.0000 0.96670  0.81830  0.38500  Biso   1.000  O
  O265     1.0000 0.79470  0.98890  0.36020  Biso   1.000  O
  O266     1.0000 0.88520  0.92870  0.35950  Biso   1.000  O
  O267     1.0000 0.62620  0.50730  0.19060  Biso   1.000  O
  O268     1.0000 0.49740  0.40310  0.11630  Biso   1.000  O
  O269     1.0000 0.40470  0.56620  0.24920  Biso   1.000  O
  O270     1.0000 0.55390  0.58060  0.14610  Biso   1.000  O
  O271     1.0000 0.50880  0.49200  0.13940  Biso   1.000  O
  O272     1.0000 0.41440  0.46190  0.05430  Biso   1.000  O
  O273     1.0000 0.46990  0.55310  0.18780  Biso   1.000  O
  O274     1.0000 0.39320  0.49140  0.14020  Biso   1.000  O
  O275     1.0000 0.38080  0.40480  0.11510  Biso   1.000  O
  O276     1.0000 0.52110  0.43130  0.29890  Biso   1.000  O
  O277     1.0000 0.44530  0.49040  0.25020  Biso   1.000  O
  O278     1.0000 0.87040  0.86960  0.20140  Biso   1.000  O
  O279     1.0000 0.34120  0.57490  0.14380  Biso   1.000  O
  O280     1.0000 0.31720  0.50420  0.19330  Biso   1.000  O
  O281     1.0000 0.28410  0.43060  0.14200  Biso   1.000  O
  O282     1.0000 0.74890  0.84710  0.14180  Biso   1.000  O
  O283     1.0000 0.25270  0.47970  0.25310  Biso   1.000  O
  O284     1.0000 0.70980  0.90570  0.19080  Biso   1.000  O
  O285     1.0000 0.72100  0.77800  0.19250  Biso   1.000  O
  O286     1.0000 0.80110  0.84820  0.25070  Biso   1.000  O
  O287     1.0000 0.91480  0.86860  0.29910  Biso   1.000  O
  O288     1.0000 0.68970  0.69760  0.14350  Biso   1.000  O
  O289     1.0000 0.78160  0.70120  0.35640  Biso   1.000  O
  O290     1.0000 0.48490  0.67000  0.11140  Biso   1.000  O
  O291     1.0000 0.73170  0.56860  0.08390  Biso   1.000  O
  O292     1.0000 0.65250  0.61160  0.08200  Biso   1.000  O
  O293     1.0000 0.61270  0.66330  0.21420  Biso   1.000  O
  O294     1.0000 0.66920  0.65120  0.29670  Biso   1.000  O
  O295     1.0000 0.20720  0.68220  0.03020  Biso   1.000  O
  O296     1.0000 0.17360  0.70840  0.94910  Biso   1.000  O
  O297     1.0000 0.40200  0.65100  0.12910  Biso   1.000  O
  O298     1.0000 0.75070  0.70660  0.25120  Biso   1.000  O
  O299     1.0000 0.83580  0.92660  0.25120  Biso   1.000  O
  O300     1.0000 0.33200  0.73200  0.13030  Biso   1.000  O
  O301     1.0000 0.57440  0.69720  0.03900  Biso   1.000  O
  K15      1.0000 0.63400  0.75370  0.26360  Biso   1.000  K
  Na8      1.0000 0.53280  0.79090  0.25620  Biso   1.000  Na
  O302     1.0000 0.51700  0.73040  0.30300  Biso   1.000  O
  O303     1.0000 0.52290  0.75750  0.32720  Biso   1.000  O
  O304     1.0000 0.55430  0.83270  0.23520  Biso   1.000  O
  O305     1.0000 0.54200  0.85770  0.19700  Biso   1.000  O
  Pr11     1.0000 0.09004  0.15349  0.12041  Biso   1.000  Pr
  Pr12     1.0000 0.78862  0.15221  0.11073  Biso   1.000  Pr
  W76      1.0000 0.75005  0.95733  0.18844  Biso   1.000  W
  W77      1.0000 0.94331  0.94848  0.11900  Biso   1.000  W
  W78      1.0000 0.35888  0.25975  0.11883  Biso   1.000  W
  W79      1.0000 0.47892  0.25602  0.38149  Biso   1.000  W
  W80      1.0000 0.20672  0.33739  0.18695  Biso   1.000  W
  W81      1.0000 0.30971  0.37757  0.11968  Biso   1.000  W
  W82      1.0000 0.42809  0.37317  0.38162  Biso   1.000  W
  W83      1.0000 0.04613  0.03917  0.18645  Biso   1.000  W
  W84      1.0000 0.32169  0.46523  0.31618  Biso   1.000  W
  W85      1.0000 0.26197  0.34911  0.31524  Biso   1.000  W
  W86      1.0000 0.26084  0.21845  0.18681  Biso   1.000  W
  W87      1.0000 0.31027  0.22809  0.31491  Biso   1.000  W
  W88      1.0000 0.43741  0.15044  0.31388  Biso   1.000  W
  W89      1.0000 0.88125  0.03287  0.18583  Biso   1.000  W
  W90      1.0000 0.39709  0.15038  0.18560  Biso   1.000  W
  P11      1.0000 0.41110  0.24958  0.25040  Biso   1.000  P
  P12      1.0000 0.35647  0.37800  0.25051  Biso   1.000  P
  Na9      1.0000 0.52350  0.34350  0.30250  Biso   1.000  Na
  K16      1.0000 0.66110  0.50501  0.53084  Biso   1.000  K
  K17      1.0000 0.20080  0.21301  0.04000  Biso   1.000  K
  C71      1.0000 0.71540  0.19540  0.99040  Biso   1.000  C
  C72      1.0000 0.78340  0.19640  0.99420  Biso   1.000  C
  C73      1.0000 0.80020  0.21230  0.95430  Biso   1.000  C
  H31      1.0000 0.76970  0.22280  0.92270  Biso   1.000  H
  C74      1.0000 0.86420  0.21230  0.96280  Biso   1.000  C
  H32      1.0000 0.87810  0.22170  0.93610  Biso   1.000  H
  C75      1.0000 0.90780  0.19850  0.01030  Biso   1.000  C
  H33      1.0000 0.95160  0.19950  0.01730  Biso   1.000  H
  C76      1.0000 0.88530  0.18340  0.04650  Biso   1.000  C
  C77      1.0000 0.92740  0.16700  0.09960  Biso   1.000  C
  C78      1.0000 0.20020  0.11500  0.23420  Biso   1.000  C
  C79      1.0000 0.25190  0.09350  0.26800  Biso   1.000  C
  H34      1.0000 0.26090  0.09480  0.30420  Biso   1.000  H
  C80      1.0000 0.29060  0.07000  0.24940  Biso   1.000  C
  H35      1.0000 0.32690  0.05540  0.27260  Biso   1.000  H
  C81      1.0000 0.27580  0.06810  0.19680  Biso   1.000  C
  H36      1.0000 0.30240  0.05260  0.18310  Biso   1.000  H
  C82      1.0000 0.22200  0.08890  0.16360  Biso   1.000  C
  C83      1.0000 0.20110  0.08900  0.10530  Biso   1.000  C
  C84      1.0000 0.15930  0.14450  0.24960  Biso   1.000  C
  N11      1.0000 0.82440  0.18220  0.03990  Biso   1.000  N
  N12      1.0000 0.18440  0.11170  0.18260  Biso   1.000  N
  O306     1.0000 0.36370  0.17410  0.31100  Biso   1.000  O
  O307     1.0000 0.40700  0.11960  0.24920  Biso   1.000  O
  O308     1.0000 0.47690  0.14190  0.19100  Biso   1.000  O
  O309     1.0000 0.31790  0.24780  0.05450  Biso   1.000  O
  O310     1.0000 0.38330  0.19910  0.14110  Biso   1.000  O
  O311     1.0000 0.43870  0.26730  0.11490  Biso   1.000  O
  O312     1.0000 0.31210  0.17310  0.18930  Biso   1.000  O
  O313     1.0000 0.28970  0.25000  0.14140  Biso   1.000  O
  O314     1.0000 0.41080  0.27310  0.20190  Biso   1.000  O
  O315     1.0000 0.43090  0.19980  0.25060  Biso   1.000  O
  O316     1.0000 0.34290  0.24940  0.25060  Biso   1.000  O
  O317     1.0000 0.34610  0.32070  0.11640  Biso   1.000  O
  O318     1.0000 0.38930  0.24860  0.35980  Biso   1.000  O
  O319     1.0000 0.27310  0.28200  0.31010  Biso   1.000  O
  O320     1.0000 0.19300  0.34150  0.25120  Biso   1.000  O
  O321     1.0000 0.34740  0.34650  0.35980  Biso   1.000  O
  O322     1.0000 0.26730  0.40860  0.31230  Biso   1.000  O
  O323     1.0000 0.48180  0.19670  0.36050  Biso   1.000  O
  O324     1.0000 0.45490  0.27170  0.29920  Biso   1.000  O
  O325     1.0000 0.46670  0.31830  0.38500  Biso   1.000  O
  O326     1.0000 0.29470  0.48890  0.36020  Biso   1.000  O
  O327     1.0000 0.38520  0.42870  0.35950  Biso   1.000  O
  O328     1.0000 0.12620  0.00730  0.19060  Biso   1.000  O
  O329     1.0000 0.99740  0.90310  0.11630  Biso   1.000  O
  O330     1.0000 0.90470  0.06620  0.24920  Biso   1.000  O
  O331     1.0000 0.05390  0.08060  0.14610  Biso   1.000  O
  O332     1.0000 0.00880  0.99200  0.13940  Biso   1.000  O
  O333     1.0000 0.91440  0.96190  0.05430  Biso   1.000  O
  O334     1.0000 0.96990  0.05310  0.18780  Biso   1.000  O
  O335     1.0000 0.89320  0.99140  0.14020  Biso   1.000  O
  O336     1.0000 0.88080  0.90480  0.11510  Biso   1.000  O
  O337     1.0000 0.02110  0.93130  0.29890  Biso   1.000  O
  O338     1.0000 0.94530  0.99040  0.25020  Biso   1.000  O
  O339     1.0000 0.37040  0.36960  0.20140  Biso   1.000  O
  O340     1.0000 0.84120  0.07490  0.14380  Biso   1.000  O
  O341     1.0000 0.81720  0.00420  0.19330  Biso   1.000  O
  O342     1.0000 0.78410  0.93060  0.14200  Biso   1.000  O
  O343     1.0000 0.24890  0.34710  0.14180  Biso   1.000  O
  O344     1.0000 0.75270  0.97970  0.25310  Biso   1.000  O
  O345     1.0000 0.20980  0.40570  0.19080  Biso   1.000  O
  O346     1.0000 0.22100  0.27800  0.19250  Biso   1.000  O
  O347     1.0000 0.30110  0.34820  0.25070  Biso   1.000  O
  O348     1.0000 0.41480  0.36860  0.29910  Biso   1.000  O
  O349     1.0000 0.18970  0.19760  0.14350  Biso   1.000  O
  O350     1.0000 0.28160  0.20120  0.35640  Biso   1.000  O
  O351     1.0000 0.98490  0.17000  0.11140  Biso   1.000  O
  O352     1.0000 0.23170  0.06860  0.08390  Biso   1.000  O
  O353     1.0000 0.15250  0.11160  0.08200  Biso   1.000  O
  O354     1.0000 0.11270  0.16330  0.21420  Biso   1.000  O
  O355     1.0000 0.16920  0.15120  0.29670  Biso   1.000  O
  O356     1.0000 0.70720  0.18220  0.03020  Biso   1.000  O
  O357     1.0000 0.67360  0.20840  0.94910  Biso   1.000  O
  O358     1.0000 0.90200  0.15100  0.12910  Biso   1.000  O
  O359     1.0000 0.25070  0.20660  0.25120  Biso   1.000  O
  O360     1.0000 0.33580  0.42660  0.25120  Biso   1.000  O
  O361     1.0000 0.83200  0.23200  0.13030  Biso   1.000  O
  O362     1.0000 0.07440  0.19720  0.03900  Biso   1.000  O
  K18      1.0000 0.13400  0.25370  0.26360  Biso   1.000  K
  Na10     1.0000 0.03280  0.29090  0.25620  Biso   1.000  Na
  O363     1.0000 0.01700  0.23040  0.30300  Biso   1.000  O
  O364     1.0000 0.02290  0.25750  0.32720  Biso   1.000  O
  O365     1.0000 0.05430  0.33270  0.23520  Biso   1.000  O
  O366     1.0000 0.04200  0.35770  0.19700  Biso   1.000  O
  Pr13     1.0000 0.40996  0.65349  0.37959  Biso   1.000  Pr
  Pr14     1.0000 0.71138  0.65221  0.38927  Biso   1.000  Pr
  W91      1.0000 0.74995  0.45733  0.31156  Biso   1.000  W
  W92      1.0000 0.55669  0.44848  0.38100  Biso   1.000  W
  W93      1.0000 0.14112  0.75975  0.38117  Biso   1.000  W
  W94      1.0000 0.02108  0.75602  0.11851  Biso   1.000  W
  W95      1.0000 0.29328  0.83739  0.31305  Biso   1.000  W
  W96      1.0000 0.19029  0.87757  0.38032  Biso   1.000  W
  W97      1.0000 0.07191  0.87317  0.11838  Biso   1.000  W
  W98      1.0000 0.45387  0.53917  0.31355  Biso   1.000  W
  W99      1.0000 0.17831  0.96523  0.18381  Biso   1.000  W
  W100     1.0000 0.23803  0.84911  0.18476  Biso   1.000  W
  W101     1.0000 0.23916  0.71845  0.31319  Biso   1.000  W
  W102     1.0000 0.18973  0.72809  0.18509  Biso   1.000  W
  W103     1.0000 0.06259  0.65044  0.18612  Biso   1.000  W
  W104     1.0000 0.61875  0.53287  0.31417  Biso   1.000  W
  W105     1.0000 0.10291  0.65038  0.31440  Biso   1.000  W
  P13      1.0000 0.08890  0.74958  0.24960  Biso   1.000  P
  P14      1.0000 0.14353  0.87800  0.24949  Biso   1.000  P
  K19      1.0000 0.83890  0.00501  0.96916  Biso   1.000  K
  K20      1.0000 0.29920  0.71301  0.46000  Biso   1.000  K
  C85      1.0000 0.78460  0.69540  0.50960  Biso   1.000  C
  C86      1.0000 0.71660  0.69640  0.50580  Biso   1.000  C
  C87      1.0000 0.69980  0.71230  0.54570  Biso   1.000  C
  H37      1.0000 0.73030  0.72280  0.57730  Biso   1.000  H
  C88      1.0000 0.63580  0.71230  0.53720  Biso   1.000  C
  H38      1.0000 0.62190  0.72170  0.56390  Biso   1.000  H
  C89      1.0000 0.59220  0.69850  0.48970  Biso   1.000  C
  H39      1.0000 0.54840  0.69950  0.48270  Biso   1.000  H
  C90      1.0000 0.61470  0.68340  0.45350  Biso   1.000  C
  C91      1.0000 0.57260  0.66700  0.40040  Biso   1.000  C
  C92      1.0000 0.29980  0.61500  0.26580  Biso   1.000  C
  C93      1.0000 0.24810  0.59350  0.23200  Biso   1.000  C
  H40      1.0000 0.23910  0.59480  0.19580  Biso   1.000  H
  C94      1.0000 0.20940  0.57000  0.25060  Biso   1.000  C
  H41      1.0000 0.17310  0.55540  0.22740  Biso   1.000  H
  C95      1.0000 0.22420  0.56810  0.30320  Biso   1.000  C
  H42      1.0000 0.19760  0.55260  0.31690  Biso   1.000  H
  C96      1.0000 0.27800  0.58890  0.33640  Biso   1.000  C
  C97      1.0000 0.29890  0.58900  0.39470  Biso   1.000  C
  C98      1.0000 0.34070  0.64450  0.25040  Biso   1.000  C
  N13      1.0000 0.67560  0.68220  0.46010  Biso   1.000  N
  N14      1.0000 0.31560  0.61170  0.31740  Biso   1.000  N
  O367     1.0000 0.13630  0.67410  0.18900  Biso   1.000  O
  O368     1.0000 0.09300  0.61960  0.25080  Biso   1.000  O
  O369     1.0000 0.02310  0.64190  0.30900  Biso   1.000  O
  O370     1.0000 0.18210  0.74780  0.44550  Biso   1.000  O
  O371     1.0000 0.11670  0.69910  0.35890  Biso   1.000  O
  O372     1.0000 0.06130  0.76730  0.38510  Biso   1.000  O
  O373     1.0000 0.18790  0.67310  0.31070  Biso   1.000  O
  O374     1.0000 0.21030  0.75000  0.35860  Biso   1.000  O
  O375     1.0000 0.08920  0.77310  0.29810  Biso   1.000  O
  O376     1.0000 0.06910  0.69980  0.24940  Biso   1.000  O
  O377     1.0000 0.15710  0.74940  0.24940  Biso   1.000  O
  O378     1.0000 0.15390  0.82070  0.38360  Biso   1.000  O
  O379     1.0000 0.11070  0.74860  0.14020  Biso   1.000  O
  O380     1.0000 0.22690  0.78200  0.18990  Biso   1.000  O
  O381     1.0000 0.30700  0.84150  0.24880  Biso   1.000  O
  O382     1.0000 0.15260  0.84650  0.14020  Biso   1.000  O
  O383     1.0000 0.23270  0.90860  0.18770  Biso   1.000  O
  O384     1.0000 0.01820  0.69670  0.13950  Biso   1.000  O
  O385     1.0000 0.04510  0.77170  0.20080  Biso   1.000  O
  O386     1.0000 0.03330  0.81830  0.11500  Biso   1.000  O
  O387     1.0000 0.20530  0.98890  0.13980  Biso   1.000  O
  O388     1.0000 0.11480  0.92870  0.14050  Biso   1.000  O
  O389     1.0000 0.37380  0.50730  0.30940  Biso   1.000  O
  O390     1.0000 0.50260  0.40310  0.38370  Biso   1.000  O
  O391     1.0000 0.59530  0.56620  0.25080  Biso   1.000  O
  O392     1.0000 0.44610  0.58060  0.35390  Biso   1.000  O
  O393     1.0000 0.49120  0.49200  0.36060  Biso   1.000  O
  O394     1.0000 0.58560  0.46190  0.44570  Biso   1.000  O
  O395     1.0000 0.53010  0.55310  0.31220  Biso   1.000  O
  O396     1.0000 0.60680  0.49140  0.35980  Biso   1.000  O
  O397     1.0000 0.61920  0.40480  0.38490  Biso   1.000  O
  O398     1.0000 0.47890  0.43130  0.20110  Biso   1.000  O
  O399     1.0000 0.55470  0.49040  0.24980  Biso   1.000  O
  O400     1.0000 0.12960  0.86960  0.29860  Biso   1.000  O
  O401     1.0000 0.65880  0.57490  0.35620  Biso   1.000  O
  O402     1.0000 0.68280  0.50420  0.30670  Biso   1.000  O
  O403     1.0000 0.71590  0.43060  0.35800  Biso   1.000  O
  O404     1.0000 0.25110  0.84710  0.35820  Biso   1.000  O
  O405     1.0000 0.74730  0.47970  0.24690  Biso   1.000  O
  O406     1.0000 0.29020  0.90570  0.30920  Biso   1.000  O
  O407     1.0000 0.27900  0.77800  0.30750  Biso   1.000  O
  O408     1.0000 0.19890  0.84820  0.24930  Biso   1.000  O
  O409     1.0000 0.08520  0.86860  0.20090  Biso   1.000  O
  O410     1.0000 0.31030  0.69760  0.35650  Biso   1.000  O
  O411     1.0000 0.21840  0.70120  0.14360  Biso   1.000  O
  O412     1.0000 0.51510  0.67000  0.38860  Biso   1.000  O
  O413     1.0000 0.26830  0.56860  0.41610  Biso   1.000  O
  O414     1.0000 0.34750  0.61160  0.41800  Biso   1.000  O
  O415     1.0000 0.38730  0.66330  0.28580  Biso   1.000  O
  O416     1.0000 0.33080  0.65120  0.20330  Biso   1.000  O
  O417     1.0000 0.79280  0.68220  0.46980  Biso   1.000  O
  O418     1.0000 0.82640  0.70840  0.55090  Biso   1.000  O
  O419     1.0000 0.59800  0.65100  0.37090  Biso   1.000  O
  O420     1.0000 0.24930  0.70660  0.24880  Biso   1.000  O
  O421     1.0000 0.16420  0.92660  0.24880  Biso   1.000  O
  O422     1.0000 0.66800  0.73200  0.36970  Biso   1.000  O
  O423     1.0000 0.42560  0.69720  0.46100  Biso   1.000  O
  K21      1.0000 0.36600  0.75370  0.23640  Biso   1.000  K
  Na11     1.0000 0.46720  0.79090  0.24380  Biso   1.000  Na
  O424     1.0000 0.48300  0.73040  0.19700  Biso   1.000  O
  O425     1.0000 0.47710  0.75750  0.17280  Biso   1.000  O
  O426     1.0000 0.44570  0.83270  0.26480  Biso   1.000  O
  O427     1.0000 0.45800  0.85770  0.30300  Biso   1.000  O
  Pr15     1.0000 0.90996  0.15349  0.37959  Biso   1.000  Pr
  Pr16     1.0000 0.21138  0.15221  0.38927  Biso   1.000  Pr
  W106     1.0000 0.24995  0.95733  0.31156  Biso   1.000  W
  W107     1.0000 0.05669  0.94848  0.38100  Biso   1.000  W
  W108     1.0000 0.64112  0.25975  0.38117  Biso   1.000  W
  W109     1.0000 0.52108  0.25602  0.11851  Biso   1.000  W
  W110     1.0000 0.79328  0.33739  0.31305  Biso   1.000  W
  W111     1.0000 0.69029  0.37757  0.38032  Biso   1.000  W
  W112     1.0000 0.57191  0.37317  0.11838  Biso   1.000  W
  W113     1.0000 0.95387  0.03917  0.31355  Biso   1.000  W
  W114     1.0000 0.67831  0.46523  0.18381  Biso   1.000  W
  W115     1.0000 0.73803  0.34911  0.18476  Biso   1.000  W
  W116     1.0000 0.73916  0.21845  0.31319  Biso   1.000  W
  W117     1.0000 0.68973  0.22809  0.18509  Biso   1.000  W
  W118     1.0000 0.56259  0.15044  0.18612  Biso   1.000  W
  W119     1.0000 0.11875  0.03287  0.31417  Biso   1.000  W
  W120     1.0000 0.60291  0.15038  0.31440  Biso   1.000  W
  P15      1.0000 0.58890  0.24958  0.24960  Biso   1.000  P
  P16      1.0000 0.64353  0.37800  0.24949  Biso   1.000  P
  K22      1.0000 0.33890  0.50501  0.96916  Biso   1.000  K
  K23      1.0000 0.79920  0.21301  0.46000  Biso   1.000  K
  C99      1.0000 0.28460  0.19540  0.50960  Biso   1.000  C
  C100     1.0000 0.21660  0.19640  0.50580  Biso   1.000  C
  C101     1.0000 0.19980  0.21230  0.54570  Biso   1.000  C
  H43      1.0000 0.23030  0.22280  0.57730  Biso   1.000  H
  C102     1.0000 0.13580  0.21230  0.53720  Biso   1.000  C
  H44      1.0000 0.12190  0.22170  0.56390  Biso   1.000  H
  C103     1.0000 0.09220  0.19850  0.48970  Biso   1.000  C
  H45      1.0000 0.04840  0.19950  0.48270  Biso   1.000  H
  C104     1.0000 0.11470  0.18340  0.45350  Biso   1.000  C
  C105     1.0000 0.07260  0.16700  0.40040  Biso   1.000  C
  C106     1.0000 0.79980  0.11500  0.26580  Biso   1.000  C
  C107     1.0000 0.74810  0.09350  0.23200  Biso   1.000  C
  H46      1.0000 0.73910  0.09480  0.19580  Biso   1.000  H
  C108     1.0000 0.70940  0.07000  0.25060  Biso   1.000  C
  H47      1.0000 0.67310  0.05540  0.22740  Biso   1.000  H
  C109     1.0000 0.72420  0.06810  0.30320  Biso   1.000  C
  H48      1.0000 0.69760  0.05260  0.31690  Biso   1.000  H
  C110     1.0000 0.77800  0.08890  0.33640  Biso   1.000  C
  C111     1.0000 0.79890  0.08900  0.39470  Biso   1.000  C
  C112     1.0000 0.84070  0.14450  0.25040  Biso   1.000  C
  N15      1.0000 0.17560  0.18220  0.46010  Biso   1.000  N
  N16      1.0000 0.81560  0.11170  0.31740  Biso   1.000  N
  O428     1.0000 0.63630  0.17410  0.18900  Biso   1.000  O
  O429     1.0000 0.59300  0.11960  0.25080  Biso   1.000  O
  O430     1.0000 0.52310  0.14190  0.30900  Biso   1.000  O
  O431     1.0000 0.68210  0.24780  0.44550  Biso   1.000  O
  O432     1.0000 0.61670  0.19910  0.35890  Biso   1.000  O
  O433     1.0000 0.56130  0.26730  0.38510  Biso   1.000  O
  O434     1.0000 0.68790  0.17310  0.31070  Biso   1.000  O
  O435     1.0000 0.71030  0.25000  0.35860  Biso   1.000  O
  O436     1.0000 0.58920  0.27310  0.29810  Biso   1.000  O
  O437     1.0000 0.56910  0.19980  0.24940  Biso   1.000  O
  O438     1.0000 0.65710  0.24940  0.24940  Biso   1.000  O
  O439     1.0000 0.65390  0.32070  0.38360  Biso   1.000  O
  O440     1.0000 0.61070  0.24860  0.14020  Biso   1.000  O
  O441     1.0000 0.72690  0.28200  0.18990  Biso   1.000  O
  O442     1.0000 0.80700  0.34150  0.24880  Biso   1.000  O
  O443     1.0000 0.65260  0.34650  0.14020  Biso   1.000  O
  O444     1.0000 0.73270  0.40860  0.18770  Biso   1.000  O
  O445     1.0000 0.51820  0.19670  0.13950  Biso   1.000  O
  O446     1.0000 0.54510  0.27170  0.20080  Biso   1.000  O
  O447     1.0000 0.53330  0.31830  0.11500  Biso   1.000  O
  O448     1.0000 0.70530  0.48890  0.13980  Biso   1.000  O
  O449     1.0000 0.61480  0.42870  0.14050  Biso   1.000  O
  O450     1.0000 0.87380  0.00730  0.30940  Biso   1.000  O
  O451     1.0000 0.00260  0.90310  0.38370  Biso   1.000  O
  O452     1.0000 0.09530  0.06620  0.25080  Biso   1.000  O
  O453     1.0000 0.94610  0.08060  0.35390  Biso   1.000  O
  O454     1.0000 0.99120  0.99200  0.36060  Biso   1.000  O
  O455     1.0000 0.08560  0.96190  0.44570  Biso   1.000  O
  O456     1.0000 0.03010  0.05310  0.31220  Biso   1.000  O
  O457     1.0000 0.10680  0.99140  0.35980  Biso   1.000  O
  O458     1.0000 0.11920  0.90480  0.38490  Biso   1.000  O
  O459     1.0000 0.97890  0.93130  0.20110  Biso   1.000  O
  O460     1.0000 0.05470  0.99040  0.24980  Biso   1.000  O
  O461     1.0000 0.62960  0.36960  0.29860  Biso   1.000  O
  O462     1.0000 0.15880  0.07490  0.35620  Biso   1.000  O
  O463     1.0000 0.18280  0.00420  0.30670  Biso   1.000  O
  O464     1.0000 0.21590  0.93060  0.35800  Biso   1.000  O
  O465     1.0000 0.75110  0.34710  0.35820  Biso   1.000  O
  O466     1.0000 0.24730  0.97970  0.24690  Biso   1.000  O
  O467     1.0000 0.79020  0.40570  0.30920  Biso   1.000  O
  O468     1.0000 0.77900  0.27800  0.30750  Biso   1.000  O
  O469     1.0000 0.69890  0.34820  0.24930  Biso   1.000  O
  O470     1.0000 0.58520  0.36860  0.20090  Biso   1.000  O
  O471     1.0000 0.81030  0.19760  0.35650  Biso   1.000  O
  O472     1.0000 0.71840  0.20120  0.14360  Biso   1.000  O
  O473     1.0000 0.01510  0.17000  0.38860  Biso   1.000  O
  O474     1.0000 0.76830  0.06860  0.41610  Biso   1.000  O
  O475     1.0000 0.84750  0.11160  0.41800  Biso   1.000  O
  O476     1.0000 0.88730  0.16330  0.28580  Biso   1.000  O
  O477     1.0000 0.83080  0.15120  0.20330  Biso   1.000  O
  O478     1.0000 0.29280  0.18220  0.46980  Biso   1.000  O
  O479     1.0000 0.32640  0.20840  0.55090  Biso   1.000  O
  O480     1.0000 0.09800  0.15100  0.37090  Biso   1.000  O
  O481     1.0000 0.74930  0.20660  0.24880  Biso   1.000  O
  O482     1.0000 0.66420  0.42660  0.24880  Biso   1.000  O
  O483     1.0000 0.16800  0.23200  0.36970  Biso   1.000  O
  O484     1.0000 0.92560  0.19720  0.46100  Biso   1.000  O
  K24      1.0000 0.86600  0.25370  0.23640  Biso   1.000  K
  Na12     1.0000 0.96720  0.29090  0.24380  Biso   1.000  Na
  O485     1.0000 0.98300  0.23040  0.19700  Biso   1.000  O
  O486     1.0000 0.97710  0.25750  0.17280  Biso   1.000  O
  O487     1.0000 0.94570  0.33270  0.26480  Biso   1.000  O
  O488     1.0000 0.95800  0.35770  0.30300  Biso   1.000  O
  P17      1.0000 0.50000  0.54091  0.75000  Biso   1.000  P
  P18      1.0000 0.00000  0.04091  0.75000  Biso   1.000  P
  P19      1.0000 0.50000  0.45909  0.25000  Biso   1.000  P
  P20      1.0000 0.00000  0.95909  0.25000  Biso   1.000  P
