data_image0
_cell_length_a       36.3966
_cell_length_b       36.3966
_cell_length_c       23.9655
_cell_angle_alpha    90
_cell_angle_beta     90
_cell_angle_gamma    120

_symmetry_space_group_name_H-M    "P 1"
_symmetry_int_tables_number       1

loop_
  _symmetry_equiv_pos_as_xyz
  'x, y, z'

loop_
  _atom_site_label
  _atom_site_occupancy
  _atom_site_fract_x
  _atom_site_fract_y
  _atom_site_fract_z
  _atom_site_thermal_displace_type
  _atom_site_B_iso_or_equiv
  _atom_site_type_symbol
  In1      1.0000 0.13301  0.77356  0.72941  Biso   1.000  In
  Co1      1.0000 0.21551  0.85212  0.81670  Biso   1.000  Co
  O1       1.0000 0.21862  0.79750  0.80290  Biso   1.000  O
  O2       1.0000 0.11740  0.75098  0.63790  Biso   1.000  O
  O3       1.0000 0.30804  0.06918  0.27154  Biso   1.000  O
  O4       1.0000 0.18840  0.76884  0.72092  Biso   1.000  O
  O5       1.0000 0.26901  0.06400  0.19639  Biso   1.000  O
  O6       1.0000 0.91240  0.69470  0.17140  Biso   1.000  O
  O7       1.0000 0.14795  0.81750  0.65517  Biso   1.000  O
  O8       1.0000 0.15682  0.82846  0.77786  Biso   1.000  O
  O9       1.0000 0.95410  0.72770  0.10070  Biso   1.000  O
  C1       1.0000 0.01020  0.76470  0.28610  Biso   1.000  C
  H1       1.0000 0.00390  0.76470  0.32380  Biso   1.000  H
  C2       1.0000 0.08870  0.80510  0.35920  Biso   1.000  C
  H2       1.0000 0.06680  0.77970  0.37320  Biso   1.000  H
  C3       1.0000 0.05990  0.78530  0.20950  Biso   1.000  C
  H3       1.0000 0.08760  0.79880  0.19610  Biso   1.000  H
  C4       1.0000 0.18340  0.92700  0.29870  Biso   1.000  C
  C5       1.0000 0.05260  0.78760  0.26480  Biso   1.000  C
  C6       1.0000 0.11930  0.85430  0.28400  Biso   1.000  C
  H4       1.0000 0.11900  0.86120  0.24670  Biso   1.000  H
  C7       1.0000 0.12140  0.83170  0.39480  Biso   1.000  C
  C8       1.0000 0.15330  0.87220  0.37500  Biso   1.000  C
  H5       1.0000 0.17480  0.89080  0.39870  Biso   1.000  H
  C9       1.0000 0.08740  0.81500  0.30380  Biso   1.000  C
  C10      1.0000 0.25420  0.98670  0.30220  Biso   1.000  C
  H6       1.0000 0.28160  0.99950  0.31630  Biso   1.000  H
  C11      1.0000 0.30080  0.74830  0.78090  Biso   1.000  C
  H7       1.0000 0.32570  0.75850  0.80160  Biso   1.000  H
  C12      1.0000 0.25223  0.70100  0.71390  Biso   1.000  C
  H8       1.0000 0.24350  0.67820  0.68960  Biso   1.000  H
  C13      1.0000 0.22410  0.94880  0.32270  Biso   1.000  C
  H9       1.0000 0.23040  0.93710  0.35310  Biso   1.000  H
  C14      1.0000 0.15170  0.88360  0.31900  Biso   1.000  C
  C15      1.0000 0.27700  0.76870  0.78560  Biso   1.000  C
  H10      1.0000 0.28510  0.79090  0.81090  Biso   1.000  H
  C16      1.0000 0.21480  0.77640  0.75850  Biso   1.000  C
  C17      1.0000 0.17440  0.94680  0.25680  Biso   1.000  C
  H11      1.0000 0.14720  0.93350  0.24180  Biso   1.000  H
  C18      1.0000 0.28930  0.64530  0.74470  Biso   1.000  C
  C19      1.0000 0.27676  0.05030  0.24120  Biso   1.000  C
  C20      1.0000 0.31121  0.68911  0.74530  Biso   1.000  C
  C21      1.0000 0.28892  0.71380  0.74700  Biso   1.000  C
  C22      1.0000 0.20416  0.98580  0.23620  Biso   1.000  C
  H12      1.0000 0.19750  0.99800  0.20670  Biso   1.000  H
  C23      1.0000 0.24406  0.00660  0.25970  Biso   1.000  C
  C24      1.0000 0.22924  0.72170  0.71690  Biso   1.000  C
  H13      1.0000 0.20520  0.71280  0.69500  Biso   1.000  H
  C25      1.0000 0.24220  0.75630  0.75330  Biso   1.000  C
  C26      1.0000 0.11170  0.77840  0.46900  Biso   1.000  C
  H14      1.0000 0.10250  0.75700  0.44240  Biso   1.000  H
  C27      1.0000 0.02510  0.76220  0.17150  Biso   1.000  C
  H15      1.0000 0.03040  0.76170  0.13360  Biso   1.000  H
  C28      1.0000 0.97800  0.74180  0.24570  Biso   1.000  C
  H16      1.0000 0.95020  0.72620  0.25820  Biso   1.000  H
  C29      1.0000 0.11290  0.76800  0.52440  Biso   1.000  C
  H17      1.0000 0.10250  0.73990  0.53490  Biso   1.000  H
  C30      1.0000 0.12380  0.81930  0.45120  Biso   1.000  C
  C31      1.0000 0.14280  0.83890  0.55040  Biso   1.000  C
  H18      1.0000 0.15330  0.85920  0.57870  Biso   1.000  H
  C32      1.0000 0.13300  0.78700  0.62530  Biso   1.000  C
  C33      1.0000 0.14130  0.85100  0.49050  Biso   1.000  C
  H19      1.0000 0.15190  0.87920  0.48040  Biso   1.000  H
  C34      1.0000 0.98490  0.74120  0.19080  Biso   1.000  C
  C35      1.0000 0.12860  0.79810  0.56100  Biso   1.000  C
  C36      1.0000 0.94710  0.72100  0.14890  Biso   1.000  C
  Co2      1.0000 0.20320  0.82320  0.83980  Biso   1.000  Co
  In2      1.0000 0.12580  0.75455  0.74073  Biso   1.000  In
  In3      1.0000 0.79967  0.10689  0.06274  Biso   1.000  In
  Co3      1.0000 0.88218  0.18545  0.15003  Biso   1.000  Co
  O10      1.0000 0.88529  0.13083  0.13623  Biso   1.000  O
  O11      1.0000 0.78407  0.08431  0.97123  Biso   1.000  O
  O12      1.0000 0.97471  0.40251  0.60487  Biso   1.000  O
  O13      1.0000 0.85507  0.10217  0.05425  Biso   1.000  O
  O14      1.0000 0.93568  0.39733  0.52972  Biso   1.000  O
  O15      1.0000 0.57907  0.02803  0.50473  Biso   1.000  O
  O16      1.0000 0.81462  0.15083  0.98850  Biso   1.000  O
  O17      1.0000 0.82349  0.16179  0.11119  Biso   1.000  O
  O18      1.0000 0.62077  0.06103  0.43403  Biso   1.000  O
  C37      1.0000 0.67687  0.09803  0.61943  Biso   1.000  C
  H20      1.0000 0.67057  0.09803  0.65713  Biso   1.000  H
  C38      1.0000 0.75537  0.13843  0.69253  Biso   1.000  C
  H21      1.0000 0.73347  0.11303  0.70653  Biso   1.000  H
  C39      1.0000 0.72657  0.11863  0.54283  Biso   1.000  C
  H22      1.0000 0.75427  0.13213  0.52943  Biso   1.000  H
  C40      1.0000 0.85007  0.26033  0.63203  Biso   1.000  C
  C41      1.0000 0.71927  0.12093  0.59813  Biso   1.000  C
  C42      1.0000 0.78597  0.18763  0.61733  Biso   1.000  C
  H23      1.0000 0.78567  0.19453  0.58003  Biso   1.000  H
  C43      1.0000 0.78807  0.16503  0.72813  Biso   1.000  C
  C44      1.0000 0.81997  0.20553  0.70833  Biso   1.000  C
  H24      1.0000 0.84147  0.22413  0.73203  Biso   1.000  H
  C45      1.0000 0.75407  0.14833  0.63713  Biso   1.000  C
  C46      1.0000 0.92087  0.32003  0.63553  Biso   1.000  C
  H25      1.0000 0.94827  0.33283  0.64963  Biso   1.000  H
  C47      1.0000 0.96747  0.08163  0.11423  Biso   1.000  C
  H26      1.0000 0.99237  0.09183  0.13493  Biso   1.000  H
  C48      1.0000 0.91890  0.03433  0.04723  Biso   1.000  C
  H27      1.0000 0.91017  0.01153  0.02293  Biso   1.000  H
  C49      1.0000 0.89077  0.28213  0.65603  Biso   1.000  C
  H28      1.0000 0.89707  0.27043  0.68643  Biso   1.000  H
  C50      1.0000 0.81837  0.21693  0.65233  Biso   1.000  C
  C51      1.0000 0.94367  0.10203  0.11893  Biso   1.000  C
  H29      1.0000 0.95177  0.12423  0.14423  Biso   1.000  H
  C52      1.0000 0.88147  0.10973  0.09183  Biso   1.000  C
  C53      1.0000 0.84107  0.28013  0.59013  Biso   1.000  C
  H30      1.0000 0.81387  0.26683  0.57513  Biso   1.000  H
  C54      1.0000 0.95597  0.97863  0.07803  Biso   1.000  C
  C55      1.0000 0.94343  0.38363  0.57453  Biso   1.000  C
  C56      1.0000 0.97788  0.02244  0.07863  Biso   1.000  C
  C57      1.0000 0.95559  0.04713  0.08033  Biso   1.000  C
  C58      1.0000 0.87083  0.31913  0.56953  Biso   1.000  C
  H31      1.0000 0.86417  0.33133  0.54003  Biso   1.000  H
  C59      1.0000 0.91073  0.33993  0.59303  Biso   1.000  C
  C60      1.0000 0.89591  0.05503  0.05023  Biso   1.000  C
  H32      1.0000 0.87187  0.04613  0.02833  Biso   1.000  H
  C61      1.0000 0.90887  0.08963  0.08663  Biso   1.000  C
  C62      1.0000 0.77837  0.11173  0.80233  Biso   1.000  C
  H33      1.0000 0.76917  0.09033  0.77573  Biso   1.000  H
  C63      1.0000 0.69177  0.09553  0.50483  Biso   1.000  C
  H34      1.0000 0.69707  0.09503  0.46693  Biso   1.000  H
  C64      1.0000 0.64467  0.07513  0.57903  Biso   1.000  C
  H35      1.0000 0.61687  0.05953  0.59153  Biso   1.000  H
  C65      1.0000 0.77957  0.10133  0.85773  Biso   1.000  C
  H36      1.0000 0.76917  0.07323  0.86823  Biso   1.000  H
  C66      1.0000 0.79047  0.15263  0.78453  Biso   1.000  C
  C67      1.0000 0.80947  0.17223  0.88373  Biso   1.000  C
  H37      1.0000 0.81997  0.19253  0.91203  Biso   1.000  H
  C68      1.0000 0.79967  0.12033  0.95863  Biso   1.000  C
  C69      1.0000 0.80797  0.18433  0.82383  Biso   1.000  C
  H38      1.0000 0.81857  0.21253  0.81373  Biso   1.000  H
  C70      1.0000 0.65157  0.07453  0.52413  Biso   1.000  C
  C71      1.0000 0.79527  0.13143  0.89433  Biso   1.000  C
  C72      1.0000 0.61377  0.05433  0.48223  Biso   1.000  C
  Co4      1.0000 0.86987  0.15653  0.17313  Biso   1.000  Co
  In4      1.0000 0.79247  0.08788  0.07406  Biso   1.000  In
  In5      1.0000 0.46634  0.44023  0.39608  Biso   1.000  In
  Co5      1.0000 0.54884  0.51879  0.48337  Biso   1.000  Co
  O19      1.0000 0.55195  0.46417  0.46957  Biso   1.000  O
  O20      1.0000 0.45073  0.41765  0.30457  Biso   1.000  O
  O21      1.0000 0.64137  0.73585  0.93821  Biso   1.000  O
  O22      1.0000 0.52173  0.43551  0.38759  Biso   1.000  O
  O23      1.0000 0.60234  0.73067  0.86306  Biso   1.000  O
  O24      1.0000 0.24573  0.36137  0.83807  Biso   1.000  O
  O25      1.0000 0.48128  0.48417  0.32184  Biso   1.000  O
  O26      1.0000 0.49015  0.49513  0.44453  Biso   1.000  O
  O27      1.0000 0.28743  0.39437  0.76737  Biso   1.000  O
  C73      1.0000 0.34353  0.43137  0.95277  Biso   1.000  C
  H39      1.0000 0.33723  0.43137  0.99047  Biso   1.000  H
  C74      1.0000 0.42203  0.47177  0.02587  Biso   1.000  C
  H40      1.0000 0.40013  0.44637  0.03987  Biso   1.000  H
  C75      1.0000 0.39323  0.45197  0.87617  Biso   1.000  C
  H41      1.0000 0.42093  0.46547  0.86277  Biso   1.000  H
  C76      1.0000 0.51673  0.59367  0.96537  Biso   1.000  C
  C77      1.0000 0.38593  0.45427  0.93147  Biso   1.000  C
  C78      1.0000 0.45263  0.52097  0.95067  Biso   1.000  C
  H42      1.0000 0.45233  0.52787  0.91337  Biso   1.000  H
  C79      1.0000 0.45473  0.49837  0.06147  Biso   1.000  C
  C80      1.0000 0.48663  0.53887  0.04167  Biso   1.000  C
  H43      1.0000 0.50813  0.55747  0.06537  Biso   1.000  H
  C81      1.0000 0.42073  0.48167  0.97047  Biso   1.000  C
  C82      1.0000 0.58753  0.65337  0.96887  Biso   1.000  C
  H44      1.0000 0.61493  0.66617  0.98297  Biso   1.000  H
  C83      1.0000 0.63413  0.41497  0.44757  Biso   1.000  C
  H45      1.0000 0.65903  0.42517  0.46827  Biso   1.000  H
  C84      1.0000 0.58556  0.36767  0.38057  Biso   1.000  C
  H46      1.0000 0.57683  0.34487  0.35627  Biso   1.000  H
  C85      1.0000 0.55743  0.61547  0.98937  Biso   1.000  C
  H47      1.0000 0.56373  0.60377  0.01977  Biso   1.000  H
  C86      1.0000 0.48503  0.55027  0.98567  Biso   1.000  C
  C87      1.0000 0.61033  0.43537  0.45227  Biso   1.000  C
  H48      1.0000 0.61843  0.45757  0.47757  Biso   1.000  H
  C88      1.0000 0.54813  0.44307  0.42517  Biso   1.000  C
  C89      1.0000 0.50773  0.61347  0.92347  Biso   1.000  C
  H49      1.0000 0.48053  0.60017  0.90847  Biso   1.000  H
  C90      1.0000 0.62263  0.31197  0.41137  Biso   1.000  C
  C91      1.0000 0.61009  0.71697  0.90787  Biso   1.000  C
  C92      1.0000 0.64454  0.35578  0.41197  Biso   1.000  C
  C93      1.0000 0.62225  0.38047  0.41367  Biso   1.000  C
  C94      1.0000 0.53749  0.65247  0.90287  Biso   1.000  C
  H50      1.0000 0.53083  0.66467  0.87337  Biso   1.000  H
  C95      1.0000 0.57739  0.67327  0.92637  Biso   1.000  C
  C96      1.0000 0.56257  0.38837  0.38357  Biso   1.000  C
  H51      1.0000 0.53853  0.37947  0.36167  Biso   1.000  H
  C97      1.0000 0.57553  0.42297  0.41997  Biso   1.000  C
  C98      1.0000 0.44503  0.44507  0.13567  Biso   1.000  C
  H52      1.0000 0.43583  0.42367  0.10907  Biso   1.000  H
  C99      1.0000 0.35843  0.42887  0.83817  Biso   1.000  C
  H53      1.0000 0.36373  0.42837  0.80027  Biso   1.000  H
  C100     1.0000 0.31133  0.40847  0.91237  Biso   1.000  C
  H54      1.0000 0.28353  0.39287  0.92487  Biso   1.000  H
  C101     1.0000 0.44623  0.43467  0.19107  Biso   1.000  C
  H55      1.0000 0.43583  0.40657  0.20157  Biso   1.000  H
  C102     1.0000 0.45713  0.48597  0.11787  Biso   1.000  C
  C103     1.0000 0.47613  0.50557  0.21707  Biso   1.000  C
  H56      1.0000 0.48663  0.52587  0.24537  Biso   1.000  H
  C104     1.0000 0.46633  0.45367  0.29197  Biso   1.000  C
  C105     1.0000 0.47463  0.51767  0.15717  Biso   1.000  C
  H57      1.0000 0.48523  0.54587  0.14707  Biso   1.000  H
  C106     1.0000 0.31823  0.40787  0.85747  Biso   1.000  C
  C107     1.0000 0.46193  0.46477  0.22767  Biso   1.000  C
  C108     1.0000 0.28043  0.38767  0.81557  Biso   1.000  C
  Co6      1.0000 0.53653  0.48987  0.50647  Biso   1.000  Co
  In6      1.0000 0.45913  0.42122  0.40740  Biso   1.000  In
  In7      1.0000 0.22644  0.35945  0.72941  Biso   1.000  In
  Co7      1.0000 0.14788  0.36339  0.81670  Biso   1.000  Co
  O28      1.0000 0.20250  0.42112  0.80290  Biso   1.000  O
  O29      1.0000 0.24902  0.36642  0.63790  Biso   1.000  O
  O30      1.0000 0.93082  0.23886  0.27154  Biso   1.000  O
  O31      1.0000 0.23116  0.41956  0.72092  Biso   1.000  O
  O32      1.0000 0.93600  0.20501  0.19639  Biso   1.000  O
  O33      1.0000 0.30530  0.21770  0.17140  Biso   1.000  O
  O34      1.0000 0.18250  0.33045  0.65517  Biso   1.000  O
  O35      1.0000 0.17154  0.32836  0.77786  Biso   1.000  O
  O36      1.0000 0.27230  0.22640  0.10070  Biso   1.000  O
  C109     1.0000 0.23530  0.24550  0.28610  Biso   1.000  C
  H58      1.0000 0.23530  0.23920  0.32380  Biso   1.000  H
  C110     1.0000 0.19490  0.28360  0.35920  Biso   1.000  C
  H59      1.0000 0.22030  0.28710  0.37320  Biso   1.000  H
  C111     1.0000 0.21470  0.27460  0.20950  Biso   1.000  C
  H60      1.0000 0.20120  0.28880  0.19610  Biso   1.000  H
  C112     1.0000 0.07300  0.25640  0.29870  Biso   1.000  C
  C113     1.0000 0.21240  0.26500  0.26480  Biso   1.000  C
  C114     1.0000 0.14570  0.26500  0.28400  Biso   1.000  C
  H61      1.0000 0.13880  0.25780  0.24670  Biso   1.000  H
  C115     1.0000 0.16830  0.28970  0.39480  Biso   1.000  C
  C116     1.0000 0.12780  0.28110  0.37500  Biso   1.000  C
  H62      1.0000 0.10920  0.28400  0.39870  Biso   1.000  H
  C117     1.0000 0.18500  0.27240  0.30380  Biso   1.000  C
  C118     1.0000 0.01330  0.26750  0.30220  Biso   1.000  C
  H63      1.0000 0.00050  0.28210  0.31630  Biso   1.000  H
  C119     1.0000 0.25170  0.55250  0.78090  Biso   1.000  C
  H64      1.0000 0.24150  0.56720  0.80160  Biso   1.000  H
  C120     1.0000 0.29900  0.55123  0.71390  Biso   1.000  C
  H65      1.0000 0.32180  0.56530  0.68960  Biso   1.000  H
  C121     1.0000 0.05120  0.27530  0.32270  Biso   1.000  C
  H66      1.0000 0.06290  0.29330  0.35310  Biso   1.000  H
  C122     1.0000 0.11640  0.26810  0.31900  Biso   1.000  C
  C123     1.0000 0.23130  0.50830  0.78560  Biso   1.000  C
  H67      1.0000 0.20910  0.49420  0.81090  Biso   1.000  H
  C124     1.0000 0.22360  0.43840  0.75850  Biso   1.000  C
  C125     1.0000 0.05320  0.22760  0.25680  Biso   1.000  C
  H68      1.0000 0.06650  0.21370  0.24180  Biso   1.000  H
  C126     1.0000 0.35470  0.64400  0.74470  Biso   1.000  C
  C127     1.0000 0.94970  0.22646  0.24120  Biso   1.000  C
  C128     1.0000 0.31089  0.62210  0.74530  Biso   1.000  C
  C129     1.0000 0.28620  0.57512  0.74700  Biso   1.000  C
  C130     1.0000 0.01420  0.21836  0.23620  Biso   1.000  C
  H69      1.0000 0.00200  0.19950  0.20670  Biso   1.000  H
  C131     1.0000 0.99340  0.23746  0.25970  Biso   1.000  C
  C132     1.0000 0.27830  0.50754  0.71690  Biso   1.000  C
  H70      1.0000 0.28720  0.49240  0.69500  Biso   1.000  H
  C133     1.0000 0.24370  0.48590  0.75330  Biso   1.000  C
  C134     1.0000 0.22160  0.33330  0.46900  Biso   1.000  C
  H71      1.0000 0.24300  0.34550  0.44240  Biso   1.000  H
  C135     1.0000 0.23780  0.26290  0.17150  Biso   1.000  C
  H72      1.0000 0.23830  0.26870  0.13360  Biso   1.000  H
  C136     1.0000 0.25820  0.23620  0.24570  Biso   1.000  C
  H73      1.0000 0.27380  0.22400  0.25820  Biso   1.000  H
  C137     1.0000 0.23200  0.34490  0.52440  Biso   1.000  C
  H74      1.0000 0.26010  0.36260  0.53490  Biso   1.000  H
  C138     1.0000 0.18070  0.30450  0.45120  Biso   1.000  C
  C139     1.0000 0.16110  0.30390  0.55040  Biso   1.000  C
  H75      1.0000 0.14080  0.29410  0.57870  Biso   1.000  H
  C140     1.0000 0.21300  0.34600  0.62530  Biso   1.000  C
  C141     1.0000 0.14900  0.29030  0.49050  Biso   1.000  C
  H76      1.0000 0.12080  0.27270  0.48040  Biso   1.000  H
  C142     1.0000 0.25880  0.24370  0.19080  Biso   1.000  C
  C143     1.0000 0.20190  0.33050  0.56100  Biso   1.000  C
  C144     1.0000 0.27900  0.22610  0.14890  Biso   1.000  C
  Co8      1.0000 0.17680  0.38000  0.83980  Biso   1.000  Co
  In8      1.0000 0.24545  0.37125  0.74073  Biso   1.000  In
  In9      1.0000 0.89311  0.69278  0.06274  Biso   1.000  In
  Co9      1.0000 0.81455  0.69672  0.15003  Biso   1.000  Co
  O37      1.0000 0.86917  0.75445  0.13623  Biso   1.000  O
  O38      1.0000 0.91569  0.69975  0.97123  Biso   1.000  O
  O39      1.0000 0.59749  0.57219  0.60487  Biso   1.000  O
  O40      1.0000 0.89783  0.75289  0.05425  Biso   1.000  O
  O41      1.0000 0.60267  0.53834  0.52972  Biso   1.000  O
  O42      1.0000 0.97197  0.55103  0.50473  Biso   1.000  O
  O43      1.0000 0.84917  0.66378  0.98850  Biso   1.000  O
  O44      1.0000 0.83821  0.66169  0.11119  Biso   1.000  O
  O45      1.0000 0.93897  0.55973  0.43403  Biso   1.000  O
  C145     1.0000 0.90197  0.57883  0.61943  Biso   1.000  C
  H77      1.0000 0.90197  0.57253  0.65713  Biso   1.000  H
  C146     1.0000 0.86157  0.61693  0.69253  Biso   1.000  C
  H78      1.0000 0.88697  0.62043  0.70653  Biso   1.000  H
  C147     1.0000 0.88137  0.60793  0.54283  Biso   1.000  C
  H79      1.0000 0.86787  0.62213  0.52943  Biso   1.000  H
  C148     1.0000 0.73967  0.58973  0.63203  Biso   1.000  C
  C149     1.0000 0.87907  0.59833  0.59813  Biso   1.000  C
  C150     1.0000 0.81237  0.59833  0.61733  Biso   1.000  C
  H80      1.0000 0.80547  0.59113  0.58003  Biso   1.000  H
  C151     1.0000 0.83497  0.62303  0.72813  Biso   1.000  C
  C152     1.0000 0.79447  0.61443  0.70833  Biso   1.000  C
  H81      1.0000 0.77587  0.61733  0.73203  Biso   1.000  H
  C153     1.0000 0.85167  0.60573  0.63713  Biso   1.000  C
  C154     1.0000 0.67997  0.60083  0.63553  Biso   1.000  C
  H82      1.0000 0.66717  0.61543  0.64963  Biso   1.000  H
  C155     1.0000 0.91837  0.88583  0.11423  Biso   1.000  C
  H83      1.0000 0.90817  0.90053  0.13493  Biso   1.000  H
  C156     1.0000 0.96567  0.88456  0.04723  Biso   1.000  C
  H84      1.0000 0.98847  0.89863  0.02293  Biso   1.000  H
  C157     1.0000 0.71787  0.60863  0.65603  Biso   1.000  C
  H85      1.0000 0.72957  0.62663  0.68643  Biso   1.000  H
  C158     1.0000 0.78307  0.60143  0.65233  Biso   1.000  C
  C159     1.0000 0.89797  0.84163  0.11893  Biso   1.000  C
  H86      1.0000 0.87577  0.82753  0.14423  Biso   1.000  H
  C160     1.0000 0.89027  0.77173  0.09183  Biso   1.000  C
  C161     1.0000 0.71987  0.56093  0.59013  Biso   1.000  C
  H87      1.0000 0.73317  0.54703  0.57513  Biso   1.000  H
  C162     1.0000 0.02137  0.97733  0.07803  Biso   1.000  C
  C163     1.0000 0.61637  0.55979  0.57453  Biso   1.000  C
  C164     1.0000 0.97756  0.95543  0.07863  Biso   1.000  C
  C165     1.0000 0.95287  0.90845  0.08033  Biso   1.000  C
  C166     1.0000 0.68087  0.55169  0.56953  Biso   1.000  C
  H88      1.0000 0.66867  0.53283  0.54003  Biso   1.000  H
  C167     1.0000 0.66007  0.57079  0.59303  Biso   1.000  C
  C168     1.0000 0.94497  0.84087  0.05023  Biso   1.000  C
  H89      1.0000 0.95387  0.82573  0.02833  Biso   1.000  H
  C169     1.0000 0.91037  0.81923  0.08663  Biso   1.000  C
  C170     1.0000 0.88827  0.66663  0.80233  Biso   1.000  C
  H90      1.0000 0.90967  0.67883  0.77573  Biso   1.000  H
  C171     1.0000 0.90447  0.59623  0.50483  Biso   1.000  C
  H91      1.0000 0.90497  0.60203  0.46693  Biso   1.000  H
  C172     1.0000 0.92487  0.56953  0.57903  Biso   1.000  C
  H92      1.0000 0.94047  0.55733  0.59153  Biso   1.000  H
  C173     1.0000 0.89867  0.67823  0.85773  Biso   1.000  C
  H93      1.0000 0.92677  0.69593  0.86823  Biso   1.000  H
  C174     1.0000 0.84737  0.63783  0.78453  Biso   1.000  C
  C175     1.0000 0.82777  0.63723  0.88373  Biso   1.000  C
  H94      1.0000 0.80747  0.62743  0.91203  Biso   1.000  H
  C176     1.0000 0.87967  0.67933  0.95863  Biso   1.000  C
  C177     1.0000 0.81567  0.62363  0.82383  Biso   1.000  C
  H95      1.0000 0.78747  0.60603  0.81373  Biso   1.000  H
  C178     1.0000 0.92547  0.57703  0.52413  Biso   1.000  C
  C179     1.0000 0.86857  0.66383  0.89433  Biso   1.000  C
  C180     1.0000 0.94567  0.55943  0.48223  Biso   1.000  C
  Co10     1.0000 0.84347  0.71333  0.17313  Biso   1.000  Co
  In10     1.0000 0.91212  0.70458  0.07406  Biso   1.000  In
  In11     1.0000 0.55977  0.02611  0.39608  Biso   1.000  In
  Co11     1.0000 0.48121  0.03006  0.48337  Biso   1.000  Co
  O46      1.0000 0.53583  0.08779  0.46957  Biso   1.000  O
  O47      1.0000 0.58235  0.03309  0.30457  Biso   1.000  O
  O48      1.0000 0.26415  0.90553  0.93821  Biso   1.000  O
  O49      1.0000 0.56449  0.08623  0.38759  Biso   1.000  O
  O50      1.0000 0.26933  0.87168  0.86306  Biso   1.000  O
  O51      1.0000 0.63863  0.88437  0.83807  Biso   1.000  O
  O52      1.0000 0.51583  0.99712  0.32184  Biso   1.000  O
  O53      1.0000 0.50487  0.99503  0.44453  Biso   1.000  O
  O54      1.0000 0.60563  0.89307  0.76737  Biso   1.000  O
  C181     1.0000 0.56863  0.91217  0.95277  Biso   1.000  C
  H96      1.0000 0.56863  0.90587  0.99047  Biso   1.000  H
  C182     1.0000 0.52823  0.95027  0.02587  Biso   1.000  C
  H97      1.0000 0.55363  0.95377  0.03987  Biso   1.000  H
  C183     1.0000 0.54803  0.94127  0.87617  Biso   1.000  C
  H98      1.0000 0.53453  0.95547  0.86277  Biso   1.000  H
  C184     1.0000 0.40633  0.92307  0.96537  Biso   1.000  C
  C185     1.0000 0.54573  0.93167  0.93147  Biso   1.000  C
  C186     1.0000 0.47903  0.93167  0.95067  Biso   1.000  C
  H99      1.0000 0.47213  0.92447  0.91337  Biso   1.000  H
  C187     1.0000 0.50163  0.95637  0.06147  Biso   1.000  C
  C188     1.0000 0.46113  0.94777  0.04167  Biso   1.000  C
  H100     1.0000 0.44253  0.95067  0.06537  Biso   1.000  H
  C189     1.0000 0.51833  0.93907  0.97047  Biso   1.000  C
  C190     1.0000 0.34663  0.93417  0.96887  Biso   1.000  C
  H101     1.0000 0.33383  0.94877  0.98297  Biso   1.000  H
  C191     1.0000 0.58503  0.21917  0.44757  Biso   1.000  C
  H102     1.0000 0.57483  0.23387  0.46827  Biso   1.000  H
  C192     1.0000 0.63233  0.21790  0.38057  Biso   1.000  C
  H103     1.0000 0.65513  0.23197  0.35627  Biso   1.000  H
  C193     1.0000 0.38453  0.94197  0.98937  Biso   1.000  C
  H104     1.0000 0.39623  0.95997  0.01977  Biso   1.000  H
  C194     1.0000 0.44973  0.93477  0.98567  Biso   1.000  C
  C195     1.0000 0.56463  0.17497  0.45227  Biso   1.000  C
  H105     1.0000 0.54243  0.16087  0.47757  Biso   1.000  H
  C196     1.0000 0.55693  0.10507  0.42517  Biso   1.000  C
  C197     1.0000 0.38653  0.89427  0.92347  Biso   1.000  C
  H106     1.0000 0.39983  0.88037  0.90847  Biso   1.000  H
  C198     1.0000 0.68803  0.31067  0.41137  Biso   1.000  C
  C199     1.0000 0.28303  0.89313  0.90787  Biso   1.000  C
  C200     1.0000 0.64422  0.28877  0.41197  Biso   1.000  C
  C201     1.0000 0.61953  0.24179  0.41367  Biso   1.000  C
  C202     1.0000 0.34753  0.88503  0.90287  Biso   1.000  C
  H107     1.0000 0.33533  0.86617  0.87337  Biso   1.000  H
  C203     1.0000 0.32673  0.90413  0.92637  Biso   1.000  C
  C204     1.0000 0.61163  0.17421  0.38357  Biso   1.000  C
  H108     1.0000 0.62053  0.15907  0.36167  Biso   1.000  H
  C205     1.0000 0.57703  0.15257  0.41997  Biso   1.000  C
  C206     1.0000 0.55493  0.99997  0.13567  Biso   1.000  C
  H109     1.0000 0.57633  0.01217  0.10907  Biso   1.000  H
  C207     1.0000 0.57113  0.92957  0.83817  Biso   1.000  C
  H110     1.0000 0.57163  0.93537  0.80027  Biso   1.000  H
  C208     1.0000 0.59153  0.90287  0.91237  Biso   1.000  C
  H111     1.0000 0.60713  0.89067  0.92487  Biso   1.000  H
  C209     1.0000 0.56533  0.01157  0.19107  Biso   1.000  C
  H112     1.0000 0.59343  0.02927  0.20157  Biso   1.000  H
  C210     1.0000 0.51403  0.97117  0.11787  Biso   1.000  C
  C211     1.0000 0.49443  0.97057  0.21707  Biso   1.000  C
  H113     1.0000 0.47413  0.96077  0.24537  Biso   1.000  H
  C212     1.0000 0.54633  0.01267  0.29197  Biso   1.000  C
  C213     1.0000 0.48233  0.95697  0.15717  Biso   1.000  C
  H114     1.0000 0.45413  0.93937  0.14707  Biso   1.000  H
  C214     1.0000 0.59213  0.91037  0.85747  Biso   1.000  C
  C215     1.0000 0.53523  0.99717  0.22767  Biso   1.000  C
  C216     1.0000 0.61233  0.89277  0.81557  Biso   1.000  C
  Co12     1.0000 0.51013  0.04667  0.50647  Biso   1.000  Co
  In12     1.0000 0.57878  0.03792  0.40740  Biso   1.000  In
  In13     1.0000 0.64055  0.86699  0.72941  Biso   1.000  In
  Co13     1.0000 0.63661  0.78449  0.81670  Biso   1.000  Co
  O55      1.0000 0.57888  0.78138  0.80290  Biso   1.000  O
  O56      1.0000 0.63358  0.88260  0.63790  Biso   1.000  O
  O57      1.0000 0.76114  0.69196  0.27154  Biso   1.000  O
  O58      1.0000 0.58044  0.81160  0.72092  Biso   1.000  O
  O59      1.0000 0.79499  0.73099  0.19639  Biso   1.000  O
  O60      1.0000 0.78230  0.08760  0.17140  Biso   1.000  O
  O61      1.0000 0.66955  0.85205  0.65517  Biso   1.000  O
  O62      1.0000 0.67164  0.84318  0.77786  Biso   1.000  O
  O63      1.0000 0.77360  0.04590  0.10070  Biso   1.000  O
  C217     1.0000 0.75450  0.98980  0.28610  Biso   1.000  C
  H115     1.0000 0.76080  0.99610  0.32380  Biso   1.000  H
  C218     1.0000 0.71640  0.91130  0.35920  Biso   1.000  C
  H116     1.0000 0.71290  0.93320  0.37320  Biso   1.000  H
  C219     1.0000 0.72540  0.94010  0.20950  Biso   1.000  C
  H117     1.0000 0.71120  0.91240  0.19610  Biso   1.000  H
  C220     1.0000 0.74360  0.81660  0.29870  Biso   1.000  C
  C221     1.0000 0.73500  0.94740  0.26480  Biso   1.000  C
  C222     1.0000 0.73500  0.88070  0.28400  Biso   1.000  C
  H118     1.0000 0.74220  0.88100  0.24670  Biso   1.000  H
  C223     1.0000 0.71030  0.87860  0.39480  Biso   1.000  C
  C224     1.0000 0.71890  0.84670  0.37500  Biso   1.000  C
  H119     1.0000 0.71600  0.82520  0.39870  Biso   1.000  H
  C225     1.0000 0.72760  0.91260  0.30380  Biso   1.000  C
  C226     1.0000 0.73250  0.74580  0.30220  Biso   1.000  C
  H120     1.0000 0.71790  0.71840  0.31630  Biso   1.000  H
  C227     1.0000 0.44750  0.69920  0.78090  Biso   1.000  C
  H121     1.0000 0.43280  0.67430  0.80160  Biso   1.000  H
  C228     1.0000 0.44877  0.74777  0.71390  Biso   1.000  C
  H122     1.0000 0.43470  0.75650  0.68960  Biso   1.000  H
  C229     1.0000 0.72470  0.77590  0.32270  Biso   1.000  C
  H123     1.0000 0.70670  0.76960  0.35310  Biso   1.000  H
  C230     1.0000 0.73190  0.84830  0.31900  Biso   1.000  C
  C231     1.0000 0.49170  0.72300  0.78560  Biso   1.000  C
  H124     1.0000 0.50580  0.71490  0.81090  Biso   1.000  H
  C232     1.0000 0.56160  0.78520  0.75850  Biso   1.000  C
  C233     1.0000 0.77240  0.82560  0.25680  Biso   1.000  C
  H125     1.0000 0.78630  0.85280  0.24180  Biso   1.000  H
  C234     1.0000 0.35600  0.71070  0.74470  Biso   1.000  C
  C235     1.0000 0.77354  0.72324  0.24120  Biso   1.000  C
  C236     1.0000 0.37790  0.68879  0.74530  Biso   1.000  C
  C237     1.0000 0.42488  0.71108  0.74700  Biso   1.000  C
  C238     1.0000 0.78164  0.79584  0.23620  Biso   1.000  C
  H126     1.0000 0.80050  0.80250  0.20670  Biso   1.000  H
  C239     1.0000 0.76254  0.75594  0.25970  Biso   1.000  C
  C240     1.0000 0.49246  0.77076  0.71690  Biso   1.000  C
  H127     1.0000 0.50760  0.79480  0.69500  Biso   1.000  H
  C241     1.0000 0.51410  0.75780  0.75330  Biso   1.000  C
  C242     1.0000 0.66670  0.88830  0.46900  Biso   1.000  C
  H128     1.0000 0.65450  0.89750  0.44240  Biso   1.000  H
  C243     1.0000 0.73710  0.97490  0.17150  Biso   1.000  C
  H129     1.0000 0.73130  0.96960  0.13360  Biso   1.000  H
  C244     1.0000 0.76380  0.02200  0.24570  Biso   1.000  C
  H130     1.0000 0.77600  0.04980  0.25820  Biso   1.000  H
  C245     1.0000 0.65510  0.88710  0.52440  Biso   1.000  C
  H131     1.0000 0.63740  0.89750  0.53490  Biso   1.000  H
  C246     1.0000 0.69550  0.87620  0.45120  Biso   1.000  C
  C247     1.0000 0.69610  0.85720  0.55040  Biso   1.000  C
  H132     1.0000 0.70590  0.84670  0.57870  Biso   1.000  H
  C248     1.0000 0.65400  0.86700  0.62530  Biso   1.000  C
  C249     1.0000 0.70970  0.85870  0.49050  Biso   1.000  C
  H133     1.0000 0.72730  0.84810  0.48040  Biso   1.000  H
  C250     1.0000 0.75630  0.01510  0.19080  Biso   1.000  C
  C251     1.0000 0.66950  0.87140  0.56100  Biso   1.000  C
  C252     1.0000 0.77390  0.05290  0.14890  Biso   1.000  C
  Co14     1.0000 0.62000  0.79680  0.83980  Biso   1.000  Co
  In14     1.0000 0.62875  0.87420  0.74073  Biso   1.000  In
  In15     1.0000 0.30722  0.20033  0.06274  Biso   1.000  In
  Co15     1.0000 0.30328  0.11782  0.15003  Biso   1.000  Co
  O64      1.0000 0.24555  0.11471  0.13623  Biso   1.000  O
  O65      1.0000 0.30025  0.21593  0.97123  Biso   1.000  O
  O66      1.0000 0.42781  0.02529  0.60487  Biso   1.000  O
  O67      1.0000 0.24711  0.14493  0.05425  Biso   1.000  O
  O68      1.0000 0.46166  0.06432  0.52972  Biso   1.000  O
  O69      1.0000 0.44897  0.42093  0.50473  Biso   1.000  O
  O70      1.0000 0.33622  0.18538  0.98850  Biso   1.000  O
  O71      1.0000 0.33831  0.17651  0.11119  Biso   1.000  O
  O72      1.0000 0.44027  0.37923  0.43403  Biso   1.000  O
  C253     1.0000 0.42117  0.32313  0.61943  Biso   1.000  C
  H134     1.0000 0.42747  0.32943  0.65713  Biso   1.000  H
  C254     1.0000 0.38307  0.24463  0.69253  Biso   1.000  C
  H135     1.0000 0.37957  0.26653  0.70653  Biso   1.000  H
  C255     1.0000 0.39207  0.27343  0.54283  Biso   1.000  C
  H136     1.0000 0.37787  0.24573  0.52943  Biso   1.000  H
  C256     1.0000 0.41027  0.14993  0.63203  Biso   1.000  C
  C257     1.0000 0.40167  0.28073  0.59813  Biso   1.000  C
  C258     1.0000 0.40167  0.21403  0.61733  Biso   1.000  C
  H137     1.0000 0.40887  0.21433  0.58003  Biso   1.000  H
  C259     1.0000 0.37697  0.21193  0.72813  Biso   1.000  C
  C260     1.0000 0.38557  0.18003  0.70833  Biso   1.000  C
  H138     1.0000 0.38267  0.15853  0.73203  Biso   1.000  H
  C261     1.0000 0.39427  0.24593  0.63713  Biso   1.000  C
  C262     1.0000 0.39917  0.07913  0.63553  Biso   1.000  C
  H139     1.0000 0.38457  0.05173  0.64963  Biso   1.000  H
  C263     1.0000 0.11417  0.03253  0.11423  Biso   1.000  C
  H140     1.0000 0.09947  0.00763  0.13493  Biso   1.000  H
  C264     1.0000 0.11544  0.08110  0.04723  Biso   1.000  C
  H141     1.0000 0.10137  0.08983  0.02293  Biso   1.000  H
  C265     1.0000 0.39137  0.10923  0.65603  Biso   1.000  C
  H142     1.0000 0.37337  0.10293  0.68643  Biso   1.000  H
  C266     1.0000 0.39857  0.18163  0.65233  Biso   1.000  C
  C267     1.0000 0.15837  0.05633  0.11893  Biso   1.000  C
  H143     1.0000 0.17247  0.04823  0.14423  Biso   1.000  H
  C268     1.0000 0.22827  0.11853  0.09183  Biso   1.000  C
  C269     1.0000 0.43907  0.15893  0.59013  Biso   1.000  C
  H144     1.0000 0.45297  0.18613  0.57513  Biso   1.000  H
  C270     1.0000 0.02267  0.04403  0.07803  Biso   1.000  C
  C271     1.0000 0.44021  0.05657  0.57453  Biso   1.000  C
  C272     1.0000 0.04457  0.02212  0.07863  Biso   1.000  C
  C273     1.0000 0.09155  0.04441  0.08033  Biso   1.000  C
  C274     1.0000 0.44831  0.12917  0.56953  Biso   1.000  C
  H145     1.0000 0.46717  0.13583  0.54003  Biso   1.000  H
  C275     1.0000 0.42921  0.08927  0.59303  Biso   1.000  C
  C276     1.0000 0.15913  0.10409  0.05023  Biso   1.000  C
  H146     1.0000 0.17427  0.12813  0.02833  Biso   1.000  H
  C277     1.0000 0.18077  0.09113  0.08663  Biso   1.000  C
  C278     1.0000 0.33337  0.22163  0.80233  Biso   1.000  C
  H147     1.0000 0.32117  0.23083  0.77573  Biso   1.000  H
  C279     1.0000 0.40377  0.30823  0.50483  Biso   1.000  C
  H148     1.0000 0.39797  0.30293  0.46693  Biso   1.000  H
  C280     1.0000 0.43047  0.35533  0.57903  Biso   1.000  C
  H149     1.0000 0.44267  0.38313  0.59153  Biso   1.000  H
  C281     1.0000 0.32177  0.22043  0.85773  Biso   1.000  C
  H150     1.0000 0.30407  0.23083  0.86823  Biso   1.000  H
  C282     1.0000 0.36217  0.20953  0.78453  Biso   1.000  C
  C283     1.0000 0.36277  0.19053  0.88373  Biso   1.000  C
  H151     1.0000 0.37257  0.18003  0.91203  Biso   1.000  H
  C284     1.0000 0.32067  0.20033  0.95863  Biso   1.000  C
  C285     1.0000 0.37637  0.19203  0.82383  Biso   1.000  C
  H152     1.0000 0.39397  0.18143  0.81373  Biso   1.000  H
  C286     1.0000 0.42297  0.34843  0.52413  Biso   1.000  C
  C287     1.0000 0.33617  0.20473  0.89433  Biso   1.000  C
  C288     1.0000 0.44057  0.38623  0.48223  Biso   1.000  C
  Co16     1.0000 0.28667  0.13013  0.17313  Biso   1.000  Co
  In16     1.0000 0.29542  0.20753  0.07406  Biso   1.000  In
  In17     1.0000 0.97389  0.53366  0.39608  Biso   1.000  In
  Co17     1.0000 0.96994  0.45116  0.48337  Biso   1.000  Co
  O73      1.0000 0.91221  0.44805  0.46957  Biso   1.000  O
  O74      1.0000 0.96691  0.54927  0.30457  Biso   1.000  O
  O75      1.0000 0.09447  0.35863  0.93821  Biso   1.000  O
  O76      1.0000 0.91377  0.47827  0.38759  Biso   1.000  O
  O77      1.0000 0.12832  0.39766  0.86306  Biso   1.000  O
  O78      1.0000 0.11563  0.75427  0.83807  Biso   1.000  O
  O79      1.0000 0.00288  0.51872  0.32184  Biso   1.000  O
  O80      1.0000 0.00497  0.50985  0.44453  Biso   1.000  O
  O81      1.0000 0.10693  0.71257  0.76737  Biso   1.000  O
  C289     1.0000 0.08783  0.65647  0.95277  Biso   1.000  C
  H153     1.0000 0.09413  0.66277  0.99047  Biso   1.000  H
  C290     1.0000 0.04973  0.57797  0.02587  Biso   1.000  C
  H154     1.0000 0.04623  0.59987  0.03987  Biso   1.000  H
  C291     1.0000 0.05873  0.60677  0.87617  Biso   1.000  C
  H155     1.0000 0.04453  0.57907  0.86277  Biso   1.000  H
  C292     1.0000 0.07693  0.48327  0.96537  Biso   1.000  C
  C293     1.0000 0.06833  0.61407  0.93147  Biso   1.000  C
  C294     1.0000 0.06833  0.54737  0.95067  Biso   1.000  C
  H156     1.0000 0.07553  0.54767  0.91337  Biso   1.000  H
  C295     1.0000 0.04363  0.54527  0.06147  Biso   1.000  C
  C296     1.0000 0.05223  0.51337  0.04167  Biso   1.000  C
  H157     1.0000 0.04933  0.49187  0.06537  Biso   1.000  H
  C297     1.0000 0.06093  0.57927  0.97047  Biso   1.000  C
  C298     1.0000 0.06583  0.41247  0.96887  Biso   1.000  C
  H158     1.0000 0.05123  0.38507  0.98297  Biso   1.000  H
  C299     1.0000 0.78083  0.36587  0.44757  Biso   1.000  C
  H159     1.0000 0.76613  0.34097  0.46827  Biso   1.000  H
  C300     1.0000 0.78210  0.41444  0.38057  Biso   1.000  C
  H160     1.0000 0.76803  0.42317  0.35627  Biso   1.000  H
  C301     1.0000 0.05803  0.44257  0.98937  Biso   1.000  C
  H161     1.0000 0.04003  0.43627  0.01977  Biso   1.000  H
  C302     1.0000 0.06523  0.51497  0.98567  Biso   1.000  C
  C303     1.0000 0.82503  0.38967  0.45227  Biso   1.000  C
  H162     1.0000 0.83913  0.38157  0.47757  Biso   1.000  H
  C304     1.0000 0.89493  0.45187  0.42517  Biso   1.000  C
  C305     1.0000 0.10573  0.49227  0.92347  Biso   1.000  C
  H163     1.0000 0.11963  0.51947  0.90847  Biso   1.000  H
  C306     1.0000 0.68933  0.37737  0.41137  Biso   1.000  C
  C307     1.0000 0.10687  0.38991  0.90787  Biso   1.000  C
  C308     1.0000 0.71123  0.35546  0.41197  Biso   1.000  C
  C309     1.0000 0.75821  0.37775  0.41367  Biso   1.000  C
  C310     1.0000 0.11497  0.46251  0.90287  Biso   1.000  C
  H164     1.0000 0.13383  0.46917  0.87337  Biso   1.000  H
  C311     1.0000 0.09587  0.42261  0.92637  Biso   1.000  C
  C312     1.0000 0.82579  0.43743  0.38357  Biso   1.000  C
  H165     1.0000 0.84093  0.46147  0.36167  Biso   1.000  H
  C313     1.0000 0.84743  0.42447  0.41997  Biso   1.000  C
  C314     1.0000 0.00003  0.55497  0.13567  Biso   1.000  C
  H166     1.0000 0.98783  0.56417  0.10907  Biso   1.000  H
  C315     1.0000 0.07043  0.64157  0.83817  Biso   1.000  C
  H167     1.0000 0.06463  0.63627  0.80027  Biso   1.000  H
  C316     1.0000 0.09713  0.68867  0.91237  Biso   1.000  C
  H168     1.0000 0.10933  0.71647  0.92487  Biso   1.000  H
  C317     1.0000 0.98843  0.55377  0.19107  Biso   1.000  C
  H169     1.0000 0.97073  0.56417  0.20157  Biso   1.000  H
  C318     1.0000 0.02883  0.54287  0.11787  Biso   1.000  C
  C319     1.0000 0.02943  0.52387  0.21707  Biso   1.000  C
  H170     1.0000 0.03923  0.51337  0.24537  Biso   1.000  H
  C320     1.0000 0.98733  0.53367  0.29197  Biso   1.000  C
  C321     1.0000 0.04303  0.52537  0.15717  Biso   1.000  C
  H171     1.0000 0.06063  0.51477  0.14707  Biso   1.000  H
  C322     1.0000 0.08963  0.68177  0.85747  Biso   1.000  C
  C323     1.0000 0.00283  0.53807  0.22767  Biso   1.000  C
  C324     1.0000 0.10723  0.71957  0.81557  Biso   1.000  C
  Co18     1.0000 0.95333  0.46347  0.50647  Biso   1.000  Co
  In18     1.0000 0.96208  0.54087  0.40740  Biso   1.000  In
  In19     1.0000 0.86699  0.22644  0.27059  Biso   1.000  In
  Co19     1.0000 0.78449  0.14788  0.18330  Biso   1.000  Co
  O82      1.0000 0.78138  0.20250  0.19710  Biso   1.000  O
  O83      1.0000 0.88260  0.24902  0.36210  Biso   1.000  O
  O84      1.0000 0.69196  0.93082  0.72846  Biso   1.000  O
  O85      1.0000 0.81160  0.23116  0.27908  Biso   1.000  O
  O86      1.0000 0.73099  0.93600  0.80361  Biso   1.000  O
  O87      1.0000 0.08760  0.30530  0.82860  Biso   1.000  O
  O88      1.0000 0.85205  0.18250  0.34483  Biso   1.000  O
  O89      1.0000 0.84318  0.17154  0.22214  Biso   1.000  O
  O90      1.0000 0.04590  0.27230  0.89930  Biso   1.000  O
  C325     1.0000 0.98980  0.23530  0.71390  Biso   1.000  C
  H172     1.0000 0.99610  0.23530  0.67620  Biso   1.000  H
  C326     1.0000 0.91130  0.19490  0.64080  Biso   1.000  C
  H173     1.0000 0.93320  0.22030  0.62680  Biso   1.000  H
  C327     1.0000 0.94010  0.21470  0.79050  Biso   1.000  C
  H174     1.0000 0.91240  0.20120  0.80390  Biso   1.000  H
  C328     1.0000 0.81660  0.07300  0.70130  Biso   1.000  C
  C329     1.0000 0.94740  0.21240  0.73520  Biso   1.000  C
  C330     1.0000 0.88070  0.14570  0.71600  Biso   1.000  C
  H175     1.0000 0.88100  0.13880  0.75330  Biso   1.000  H
  C331     1.0000 0.87860  0.16830  0.60520  Biso   1.000  C
  C332     1.0000 0.84670  0.12780  0.62500  Biso   1.000  C
  H176     1.0000 0.82520  0.10920  0.60130  Biso   1.000  H
  C333     1.0000 0.91260  0.18500  0.69620  Biso   1.000  C
  C334     1.0000 0.74580  0.01330  0.69780  Biso   1.000  C
  H177     1.0000 0.71840  0.00050  0.68370  Biso   1.000  H
  C335     1.0000 0.69920  0.25170  0.21910  Biso   1.000  C
  H178     1.0000 0.67430  0.24150  0.19840  Biso   1.000  H
  C336     1.0000 0.74777  0.29900  0.28610  Biso   1.000  C
  H179     1.0000 0.75650  0.32180  0.31040  Biso   1.000  H
  C337     1.0000 0.77590  0.05120  0.67730  Biso   1.000  C
  H180     1.0000 0.76960  0.06290  0.64690  Biso   1.000  H
  C338     1.0000 0.84830  0.11640  0.68100  Biso   1.000  C
  C339     1.0000 0.72300  0.23130  0.21440  Biso   1.000  C
  H181     1.0000 0.71490  0.20910  0.18910  Biso   1.000  H
  C340     1.0000 0.78520  0.22360  0.24150  Biso   1.000  C
  C341     1.0000 0.82560  0.05320  0.74320  Biso   1.000  C
  H182     1.0000 0.85280  0.06650  0.75820  Biso   1.000  H
  C342     1.0000 0.71070  0.35470  0.25530  Biso   1.000  C
  C343     1.0000 0.72324  0.94970  0.75880  Biso   1.000  C
  C344     1.0000 0.68879  0.31089  0.25470  Biso   1.000  C
  C345     1.0000 0.71108  0.28620  0.25300  Biso   1.000  C
  C346     1.0000 0.79584  0.01420  0.76380  Biso   1.000  C
  H183     1.0000 0.80250  0.00200  0.79330  Biso   1.000  H
  C347     1.0000 0.75594  0.99340  0.74030  Biso   1.000  C
  C348     1.0000 0.77076  0.27830  0.28310  Biso   1.000  C
  H184     1.0000 0.79480  0.28720  0.30500  Biso   1.000  H
  C349     1.0000 0.75780  0.24370  0.24670  Biso   1.000  C
  C350     1.0000 0.88830  0.22160  0.53100  Biso   1.000  C
  H185     1.0000 0.89750  0.24300  0.55760  Biso   1.000  H
  C351     1.0000 0.97490  0.23780  0.82850  Biso   1.000  C
  H186     1.0000 0.96960  0.23830  0.86640  Biso   1.000  H
  C352     1.0000 0.02200  0.25820  0.75430  Biso   1.000  C
  H187     1.0000 0.04980  0.27380  0.74180  Biso   1.000  H
  C353     1.0000 0.88710  0.23200  0.47560  Biso   1.000  C
  H188     1.0000 0.89750  0.26010  0.46510  Biso   1.000  H
  C354     1.0000 0.87620  0.18070  0.54880  Biso   1.000  C
  C355     1.0000 0.85720  0.16110  0.44960  Biso   1.000  C
  H189     1.0000 0.84670  0.14080  0.42130  Biso   1.000  H
  C356     1.0000 0.86700  0.21300  0.37470  Biso   1.000  C
  C357     1.0000 0.85870  0.14900  0.50950  Biso   1.000  C
  H190     1.0000 0.84810  0.12080  0.51960  Biso   1.000  H
  C358     1.0000 0.01510  0.25880  0.80920  Biso   1.000  C
  C359     1.0000 0.87140  0.20190  0.43900  Biso   1.000  C
  C360     1.0000 0.05290  0.27900  0.85110  Biso   1.000  C
  Co20     1.0000 0.79680  0.17680  0.16020  Biso   1.000  Co
  In20     1.0000 0.87420  0.24545  0.25927  Biso   1.000  In
  In21     1.0000 0.53366  0.55977  0.60392  Biso   1.000  In
  Co21     1.0000 0.45116  0.48121  0.51663  Biso   1.000  Co
  O91      1.0000 0.44805  0.53583  0.53043  Biso   1.000  O
  O92      1.0000 0.54927  0.58235  0.69543  Biso   1.000  O
  O93      1.0000 0.35863  0.26415  0.06179  Biso   1.000  O
  O94      1.0000 0.47827  0.56449  0.61241  Biso   1.000  O
  O95      1.0000 0.39766  0.26933  0.13694  Biso   1.000  O
  O96      1.0000 0.75427  0.63863  0.16193  Biso   1.000  O
  O97      1.0000 0.51872  0.51583  0.67816  Biso   1.000  O
  O98      1.0000 0.50985  0.50487  0.55547  Biso   1.000  O
  O99      1.0000 0.71257  0.60563  0.23263  Biso   1.000  O
  C361     1.0000 0.65647  0.56863  0.04723  Biso   1.000  C
  H191     1.0000 0.66277  0.56863  0.00953  Biso   1.000  H
  C362     1.0000 0.57797  0.52823  0.97413  Biso   1.000  C
  H192     1.0000 0.59987  0.55363  0.96013  Biso   1.000  H
  C363     1.0000 0.60677  0.54803  0.12383  Biso   1.000  C
  H193     1.0000 0.57907  0.53453  0.13723  Biso   1.000  H
  C364     1.0000 0.48327  0.40633  0.03463  Biso   1.000  C
  C365     1.0000 0.61407  0.54573  0.06853  Biso   1.000  C
  C366     1.0000 0.54737  0.47903  0.04933  Biso   1.000  C
  H194     1.0000 0.54767  0.47213  0.08663  Biso   1.000  H
  C367     1.0000 0.54527  0.50163  0.93853  Biso   1.000  C
  C368     1.0000 0.51337  0.46113  0.95833  Biso   1.000  C
  H195     1.0000 0.49187  0.44253  0.93463  Biso   1.000  H
  C369     1.0000 0.57927  0.51833  0.02953  Biso   1.000  C
  C370     1.0000 0.41247  0.34663  0.03113  Biso   1.000  C
  H196     1.0000 0.38507  0.33383  0.01703  Biso   1.000  H
  C371     1.0000 0.36587  0.58503  0.55243  Biso   1.000  C
  H197     1.0000 0.34097  0.57483  0.53173  Biso   1.000  H
  C372     1.0000 0.41444  0.63233  0.61943  Biso   1.000  C
  H198     1.0000 0.42317  0.65513  0.64373  Biso   1.000  H
  C373     1.0000 0.44257  0.38453  0.01063  Biso   1.000  C
  H199     1.0000 0.43627  0.39623  0.98023  Biso   1.000  H
  C374     1.0000 0.51497  0.44973  0.01433  Biso   1.000  C
  C375     1.0000 0.38967  0.56463  0.54773  Biso   1.000  C
  H200     1.0000 0.38157  0.54243  0.52243  Biso   1.000  H
  C376     1.0000 0.45187  0.55693  0.57483  Biso   1.000  C
  C377     1.0000 0.49227  0.38653  0.07653  Biso   1.000  C
  H201     1.0000 0.51947  0.39983  0.09153  Biso   1.000  H
  C378     1.0000 0.37737  0.68803  0.58863  Biso   1.000  C
  C379     1.0000 0.38991  0.28303  0.09213  Biso   1.000  C
  C380     1.0000 0.35546  0.64422  0.58803  Biso   1.000  C
  C381     1.0000 0.37775  0.61953  0.58633  Biso   1.000  C
  C382     1.0000 0.46251  0.34753  0.09713  Biso   1.000  C
  H202     1.0000 0.46917  0.33533  0.12663  Biso   1.000  H
  C383     1.0000 0.42261  0.32673  0.07363  Biso   1.000  C
  C384     1.0000 0.43743  0.61163  0.61643  Biso   1.000  C
  H203     1.0000 0.46147  0.62053  0.63833  Biso   1.000  H
  C385     1.0000 0.42447  0.57703  0.58003  Biso   1.000  C
  C386     1.0000 0.55497  0.55493  0.86433  Biso   1.000  C
  H204     1.0000 0.56417  0.57633  0.89093  Biso   1.000  H
  C387     1.0000 0.64157  0.57113  0.16183  Biso   1.000  C
  H205     1.0000 0.63627  0.57163  0.19973  Biso   1.000  H
  C388     1.0000 0.68867  0.59153  0.08763  Biso   1.000  C
  H206     1.0000 0.71647  0.60713  0.07513  Biso   1.000  H
  C389     1.0000 0.55377  0.56533  0.80893  Biso   1.000  C
  H207     1.0000 0.56417  0.59343  0.79843  Biso   1.000  H
  C390     1.0000 0.54287  0.51403  0.88213  Biso   1.000  C
  C391     1.0000 0.52387  0.49443  0.78293  Biso   1.000  C
  H208     1.0000 0.51337  0.47413  0.75463  Biso   1.000  H
  C392     1.0000 0.53367  0.54633  0.70803  Biso   1.000  C
  C393     1.0000 0.52537  0.48233  0.84283  Biso   1.000  C
  H209     1.0000 0.51477  0.45413  0.85293  Biso   1.000  H
  C394     1.0000 0.68177  0.59213  0.14253  Biso   1.000  C
  C395     1.0000 0.53807  0.53523  0.77233  Biso   1.000  C
  C396     1.0000 0.71957  0.61233  0.18443  Biso   1.000  C
  Co22     1.0000 0.46347  0.51013  0.49353  Biso   1.000  Co
  In22     1.0000 0.54087  0.57878  0.59260  Biso   1.000  In
  In23     1.0000 0.20033  0.89311  0.93726  Biso   1.000  In
  Co23     1.0000 0.11782  0.81455  0.84997  Biso   1.000  Co
  O100     1.0000 0.11471  0.86917  0.86377  Biso   1.000  O
  O101     1.0000 0.21593  0.91569  0.02877  Biso   1.000  O
  O102     1.0000 0.02529  0.59749  0.39513  Biso   1.000  O
  O103     1.0000 0.14493  0.89783  0.94575  Biso   1.000  O
  O104     1.0000 0.06432  0.60267  0.47028  Biso   1.000  O
  O105     1.0000 0.42093  0.97197  0.49527  Biso   1.000  O
  O106     1.0000 0.18538  0.84917  0.01150  Biso   1.000  O
  O107     1.0000 0.17651  0.83821  0.88881  Biso   1.000  O
  O108     1.0000 0.37923  0.93897  0.56597  Biso   1.000  O
  C397     1.0000 0.32313  0.90197  0.38057  Biso   1.000  C
  H210     1.0000 0.32943  0.90197  0.34287  Biso   1.000  H
  C398     1.0000 0.24463  0.86157  0.30747  Biso   1.000  C
  H211     1.0000 0.26653  0.88697  0.29347  Biso   1.000  H
  C399     1.0000 0.27343  0.88137  0.45717  Biso   1.000  C
  H212     1.0000 0.24573  0.86787  0.47057  Biso   1.000  H
  C400     1.0000 0.14993  0.73967  0.36797  Biso   1.000  C
  C401     1.0000 0.28073  0.87907  0.40187  Biso   1.000  C
  C402     1.0000 0.21403  0.81237  0.38267  Biso   1.000  C
  H213     1.0000 0.21433  0.80547  0.41997  Biso   1.000  H
  C403     1.0000 0.21193  0.83497  0.27187  Biso   1.000  C
  C404     1.0000 0.18003  0.79447  0.29167  Biso   1.000  C
  H214     1.0000 0.15853  0.77587  0.26797  Biso   1.000  H
  C405     1.0000 0.24593  0.85167  0.36287  Biso   1.000  C
  C406     1.0000 0.07913  0.67997  0.36447  Biso   1.000  C
  H215     1.0000 0.05173  0.66717  0.35037  Biso   1.000  H
  C407     1.0000 0.03253  0.91837  0.88577  Biso   1.000  C
  H216     1.0000 0.00763  0.90817  0.86507  Biso   1.000  H
  C408     1.0000 0.08110  0.96567  0.95277  Biso   1.000  C
  H217     1.0000 0.08983  0.98847  0.97707  Biso   1.000  H
  C409     1.0000 0.10923  0.71787  0.34397  Biso   1.000  C
  H218     1.0000 0.10293  0.72957  0.31357  Biso   1.000  H
  C410     1.0000 0.18163  0.78307  0.34767  Biso   1.000  C
  C411     1.0000 0.05633  0.89797  0.88107  Biso   1.000  C
  H219     1.0000 0.04823  0.87577  0.85577  Biso   1.000  H
  C412     1.0000 0.11853  0.89027  0.90817  Biso   1.000  C
  C413     1.0000 0.15893  0.71987  0.40987  Biso   1.000  C
  H220     1.0000 0.18613  0.73317  0.42487  Biso   1.000  H
  C414     1.0000 0.04403  0.02137  0.92197  Biso   1.000  C
  C415     1.0000 0.05657  0.61637  0.42547  Biso   1.000  C
  C416     1.0000 0.02212  0.97756  0.92137  Biso   1.000  C
  C417     1.0000 0.04441  0.95287  0.91967  Biso   1.000  C
  C418     1.0000 0.12917  0.68087  0.43047  Biso   1.000  C
  H221     1.0000 0.13583  0.66867  0.45997  Biso   1.000  H
  C419     1.0000 0.08927  0.66007  0.40697  Biso   1.000  C
  C420     1.0000 0.10409  0.94497  0.94977  Biso   1.000  C
  H222     1.0000 0.12813  0.95387  0.97167  Biso   1.000  H
  C421     1.0000 0.09113  0.91037  0.91337  Biso   1.000  C
  C422     1.0000 0.22163  0.88827  0.19767  Biso   1.000  C
  H223     1.0000 0.23083  0.90967  0.22427  Biso   1.000  H
  C423     1.0000 0.30823  0.90447  0.49517  Biso   1.000  C
  H224     1.0000 0.30293  0.90497  0.53307  Biso   1.000  H
  C424     1.0000 0.35533  0.92487  0.42097  Biso   1.000  C
  H225     1.0000 0.38313  0.94047  0.40847  Biso   1.000  H
  C425     1.0000 0.22043  0.89867  0.14227  Biso   1.000  C
  H226     1.0000 0.23083  0.92677  0.13177  Biso   1.000  H
  C426     1.0000 0.20953  0.84737  0.21547  Biso   1.000  C
  C427     1.0000 0.19053  0.82777  0.11627  Biso   1.000  C
  H227     1.0000 0.18003  0.80747  0.08797  Biso   1.000  H
  C428     1.0000 0.20033  0.87967  0.04137  Biso   1.000  C
  C429     1.0000 0.19203  0.81567  0.17617  Biso   1.000  C
  H228     1.0000 0.18143  0.78747  0.18627  Biso   1.000  H
  C430     1.0000 0.34843  0.92547  0.47587  Biso   1.000  C
  C431     1.0000 0.20473  0.86857  0.10567  Biso   1.000  C
  C432     1.0000 0.38623  0.94567  0.51777  Biso   1.000  C
  Co24     1.0000 0.13013  0.84347  0.82687  Biso   1.000  Co
  In24     1.0000 0.20753  0.91212  0.92594  Biso   1.000  In
  In25     1.0000 0.77356  0.64055  0.27059  Biso   1.000  In
  Co25     1.0000 0.85212  0.63661  0.18330  Biso   1.000  Co
  O109     1.0000 0.79750  0.57888  0.19710  Biso   1.000  O
  O110     1.0000 0.75098  0.63358  0.36210  Biso   1.000  O
  O111     1.0000 0.06918  0.76114  0.72846  Biso   1.000  O
  O112     1.0000 0.76884  0.58044  0.27908  Biso   1.000  O
  O113     1.0000 0.06400  0.79499  0.80361  Biso   1.000  O
  O114     1.0000 0.69470  0.78230  0.82860  Biso   1.000  O
  O115     1.0000 0.81750  0.66955  0.34483  Biso   1.000  O
  O116     1.0000 0.82846  0.67164  0.22214  Biso   1.000  O
  O117     1.0000 0.72770  0.77360  0.89930  Biso   1.000  O
  C433     1.0000 0.76470  0.75450  0.71390  Biso   1.000  C
  H229     1.0000 0.76470  0.76080  0.67620  Biso   1.000  H
  C434     1.0000 0.80510  0.71640  0.64080  Biso   1.000  C
  H230     1.0000 0.77970  0.71290  0.62680  Biso   1.000  H
  C435     1.0000 0.78530  0.72540  0.79050  Biso   1.000  C
  H231     1.0000 0.79880  0.71120  0.80390  Biso   1.000  H
  C436     1.0000 0.92700  0.74360  0.70130  Biso   1.000  C
  C437     1.0000 0.78760  0.73500  0.73520  Biso   1.000  C
  C438     1.0000 0.85430  0.73500  0.71600  Biso   1.000  C
  H232     1.0000 0.86120  0.74220  0.75330  Biso   1.000  H
  C439     1.0000 0.83170  0.71030  0.60520  Biso   1.000  C
  C440     1.0000 0.87220  0.71890  0.62500  Biso   1.000  C
  H233     1.0000 0.89080  0.71600  0.60130  Biso   1.000  H
  C441     1.0000 0.81500  0.72760  0.69620  Biso   1.000  C
  C442     1.0000 0.98670  0.73250  0.69780  Biso   1.000  C
  H234     1.0000 0.99950  0.71790  0.68370  Biso   1.000  H
  C443     1.0000 0.74830  0.44750  0.21910  Biso   1.000  C
  H235     1.0000 0.75850  0.43280  0.19840  Biso   1.000  H
  C444     1.0000 0.70100  0.44877  0.28610  Biso   1.000  C
  H236     1.0000 0.67820  0.43470  0.31040  Biso   1.000  H
  C445     1.0000 0.94880  0.72470  0.67730  Biso   1.000  C
  H237     1.0000 0.93710  0.70670  0.64690  Biso   1.000  H
  C446     1.0000 0.88360  0.73190  0.68100  Biso   1.000  C
  C447     1.0000 0.76870  0.49170  0.21440  Biso   1.000  C
  H238     1.0000 0.79090  0.50580  0.18910  Biso   1.000  H
  C448     1.0000 0.77640  0.56160  0.24150  Biso   1.000  C
  C449     1.0000 0.94680  0.77240  0.74320  Biso   1.000  C
  H239     1.0000 0.93350  0.78630  0.75820  Biso   1.000  H
  C450     1.0000 0.64530  0.35600  0.25530  Biso   1.000  C
  C451     1.0000 0.05030  0.77354  0.75880  Biso   1.000  C
  C452     1.0000 0.68911  0.37790  0.25470  Biso   1.000  C
  C453     1.0000 0.71380  0.42488  0.25300  Biso   1.000  C
  C454     1.0000 0.98580  0.78164  0.76380  Biso   1.000  C
  H240     1.0000 0.99800  0.80050  0.79330  Biso   1.000  H
  C455     1.0000 0.00660  0.76254  0.74030  Biso   1.000  C
  C456     1.0000 0.72170  0.49246  0.28310  Biso   1.000  C
  H241     1.0000 0.71280  0.50760  0.30500  Biso   1.000  H
  C457     1.0000 0.75630  0.51410  0.24670  Biso   1.000  C
  C458     1.0000 0.77840  0.66670  0.53100  Biso   1.000  C
  H242     1.0000 0.75700  0.65450  0.55760  Biso   1.000  H
  C459     1.0000 0.76220  0.73710  0.82850  Biso   1.000  C
  H243     1.0000 0.76170  0.73130  0.86640  Biso   1.000  H
  C460     1.0000 0.74180  0.76380  0.75430  Biso   1.000  C
  H244     1.0000 0.72620  0.77600  0.74180  Biso   1.000  H
  C461     1.0000 0.76800  0.65510  0.47560  Biso   1.000  C
  H245     1.0000 0.73990  0.63740  0.46510  Biso   1.000  H
  C462     1.0000 0.81930  0.69550  0.54880  Biso   1.000  C
  C463     1.0000 0.83890  0.69610  0.44960  Biso   1.000  C
  H246     1.0000 0.85920  0.70590  0.42130  Biso   1.000  H
  C464     1.0000 0.78700  0.65400  0.37470  Biso   1.000  C
  C465     1.0000 0.85100  0.70970  0.50950  Biso   1.000  C
  H247     1.0000 0.87920  0.72730  0.51960  Biso   1.000  H
  C466     1.0000 0.74120  0.75630  0.80920  Biso   1.000  C
  C467     1.0000 0.79810  0.66950  0.43900  Biso   1.000  C
  C468     1.0000 0.72100  0.77390  0.85110  Biso   1.000  C
  Co26     1.0000 0.82320  0.62000  0.16020  Biso   1.000  Co
  In26     1.0000 0.75455  0.62875  0.25927  Biso   1.000  In
  In27     1.0000 0.44023  0.97389  0.60392  Biso   1.000  In
  Co27     1.0000 0.51879  0.96994  0.51663  Biso   1.000  Co
  O118     1.0000 0.46417  0.91221  0.53043  Biso   1.000  O
  O119     1.0000 0.41765  0.96691  0.69543  Biso   1.000  O
  O120     1.0000 0.73585  0.09447  0.06179  Biso   1.000  O
  O121     1.0000 0.43551  0.91377  0.61241  Biso   1.000  O
  O122     1.0000 0.73067  0.12832  0.13694  Biso   1.000  O
  O123     1.0000 0.36137  0.11563  0.16193  Biso   1.000  O
  O124     1.0000 0.48417  0.00288  0.67816  Biso   1.000  O
  O125     1.0000 0.49513  0.00497  0.55547  Biso   1.000  O
  O126     1.0000 0.39437  0.10693  0.23263  Biso   1.000  O
  C469     1.0000 0.43137  0.08783  0.04723  Biso   1.000  C
  H248     1.0000 0.43137  0.09413  0.00953  Biso   1.000  H
  C470     1.0000 0.47177  0.04973  0.97413  Biso   1.000  C
  H249     1.0000 0.44637  0.04623  0.96013  Biso   1.000  H
  C471     1.0000 0.45197  0.05873  0.12383  Biso   1.000  C
  H250     1.0000 0.46547  0.04453  0.13723  Biso   1.000  H
  C472     1.0000 0.59367  0.07693  0.03463  Biso   1.000  C
  C473     1.0000 0.45427  0.06833  0.06853  Biso   1.000  C
  C474     1.0000 0.52097  0.06833  0.04933  Biso   1.000  C
  H251     1.0000 0.52787  0.07553  0.08663  Biso   1.000  H
  C475     1.0000 0.49837  0.04363  0.93853  Biso   1.000  C
  C476     1.0000 0.53887  0.05223  0.95833  Biso   1.000  C
  H252     1.0000 0.55747  0.04933  0.93463  Biso   1.000  H
  C477     1.0000 0.48167  0.06093  0.02953  Biso   1.000  C
  C478     1.0000 0.65337  0.06583  0.03113  Biso   1.000  C
  H253     1.0000 0.66617  0.05123  0.01703  Biso   1.000  H
  C479     1.0000 0.41497  0.78083  0.55243  Biso   1.000  C
  H254     1.0000 0.42517  0.76613  0.53173  Biso   1.000  H
  C480     1.0000 0.36767  0.78210  0.61943  Biso   1.000  C
  H255     1.0000 0.34487  0.76803  0.64373  Biso   1.000  H
  C481     1.0000 0.61547  0.05803  0.01063  Biso   1.000  C
  H256     1.0000 0.60377  0.04003  0.98023  Biso   1.000  H
  C482     1.0000 0.55027  0.06523  0.01433  Biso   1.000  C
  C483     1.0000 0.43537  0.82503  0.54773  Biso   1.000  C
  H257     1.0000 0.45757  0.83913  0.52243  Biso   1.000  H
  C484     1.0000 0.44307  0.89493  0.57483  Biso   1.000  C
  C485     1.0000 0.61347  0.10573  0.07653  Biso   1.000  C
  H258     1.0000 0.60017  0.11963  0.09153  Biso   1.000  H
  C486     1.0000 0.31197  0.68933  0.58863  Biso   1.000  C
  C487     1.0000 0.71697  0.10687  0.09213  Biso   1.000  C
  C488     1.0000 0.35578  0.71123  0.58803  Biso   1.000  C
  C489     1.0000 0.38047  0.75821  0.58633  Biso   1.000  C
  C490     1.0000 0.65247  0.11497  0.09713  Biso   1.000  C
  H259     1.0000 0.66467  0.13383  0.12663  Biso   1.000  H
  C491     1.0000 0.67327  0.09587  0.07363  Biso   1.000  C
  C492     1.0000 0.38837  0.82579  0.61643  Biso   1.000  C
  H260     1.0000 0.37947  0.84093  0.63833  Biso   1.000  H
  C493     1.0000 0.42297  0.84743  0.58003  Biso   1.000  C
  C494     1.0000 0.44507  0.00003  0.86433  Biso   1.000  C
  H261     1.0000 0.42367  0.98783  0.89093  Biso   1.000  H
  C495     1.0000 0.42887  0.07043  0.16183  Biso   1.000  C
  H262     1.0000 0.42837  0.06463  0.19973  Biso   1.000  H
  C496     1.0000 0.40847  0.09713  0.08763  Biso   1.000  C
  H263     1.0000 0.39287  0.10933  0.07513  Biso   1.000  H
  C497     1.0000 0.43467  0.98843  0.80893  Biso   1.000  C
  H264     1.0000 0.40657  0.97073  0.79843  Biso   1.000  H
  C498     1.0000 0.48597  0.02883  0.88213  Biso   1.000  C
  C499     1.0000 0.50557  0.02943  0.78293  Biso   1.000  C
  H265     1.0000 0.52587  0.03923  0.75463  Biso   1.000  H
  C500     1.0000 0.45367  0.98733  0.70803  Biso   1.000  C
  C501     1.0000 0.51767  0.04303  0.84283  Biso   1.000  C
  H266     1.0000 0.54587  0.06063  0.85293  Biso   1.000  H
  C502     1.0000 0.40787  0.08963  0.14253  Biso   1.000  C
  C503     1.0000 0.46477  0.00283  0.77233  Biso   1.000  C
  C504     1.0000 0.38767  0.10723  0.18443  Biso   1.000  C
  Co28     1.0000 0.48987  0.95333  0.49353  Biso   1.000  Co
  In28     1.0000 0.42122  0.96208  0.59260  Biso   1.000  In
  In29     1.0000 0.10689  0.30722  0.93726  Biso   1.000  In
  Co29     1.0000 0.18545  0.30328  0.84997  Biso   1.000  Co
  O127     1.0000 0.13083  0.24555  0.86377  Biso   1.000  O
  O128     1.0000 0.08431  0.30025  0.02877  Biso   1.000  O
  O129     1.0000 0.40251  0.42781  0.39513  Biso   1.000  O
  O130     1.0000 0.10217  0.24711  0.94575  Biso   1.000  O
  O131     1.0000 0.39733  0.46166  0.47028  Biso   1.000  O
  O132     1.0000 0.02803  0.44897  0.49527  Biso   1.000  O
  O133     1.0000 0.15083  0.33622  0.01150  Biso   1.000  O
  O134     1.0000 0.16179  0.33831  0.88881  Biso   1.000  O
  O135     1.0000 0.06103  0.44027  0.56597  Biso   1.000  O
  C505     1.0000 0.09803  0.42117  0.38057  Biso   1.000  C
  H267     1.0000 0.09803  0.42747  0.34287  Biso   1.000  H
  C506     1.0000 0.13843  0.38307  0.30747  Biso   1.000  C
  H268     1.0000 0.11303  0.37957  0.29347  Biso   1.000  H
  C507     1.0000 0.11863  0.39207  0.45717  Biso   1.000  C
  H269     1.0000 0.13213  0.37787  0.47057  Biso   1.000  H
  C508     1.0000 0.26033  0.41027  0.36797  Biso   1.000  C
  C509     1.0000 0.12093  0.40167  0.40187  Biso   1.000  C
  C510     1.0000 0.18763  0.40167  0.38267  Biso   1.000  C
  H270     1.0000 0.19453  0.40887  0.41997  Biso   1.000  H
  C511     1.0000 0.16503  0.37697  0.27187  Biso   1.000  C
  C512     1.0000 0.20553  0.38557  0.29167  Biso   1.000  C
  H271     1.0000 0.22413  0.38267  0.26797  Biso   1.000  H
  C513     1.0000 0.14833  0.39427  0.36287  Biso   1.000  C
  C514     1.0000 0.32003  0.39917  0.36447  Biso   1.000  C
  H272     1.0000 0.33283  0.38457  0.35037  Biso   1.000  H
  C515     1.0000 0.08163  0.11417  0.88577  Biso   1.000  C
  H273     1.0000 0.09183  0.09947  0.86507  Biso   1.000  H
  C516     1.0000 0.03433  0.11544  0.95277  Biso   1.000  C
  H274     1.0000 0.01153  0.10137  0.97707  Biso   1.000  H
  C517     1.0000 0.28213  0.39137  0.34397  Biso   1.000  C
  H275     1.0000 0.27043  0.37337  0.31357  Biso   1.000  H
  C518     1.0000 0.21693  0.39857  0.34767  Biso   1.000  C
  C519     1.0000 0.10203  0.15837  0.88107  Biso   1.000  C
  H276     1.0000 0.12423  0.17247  0.85577  Biso   1.000  H
  C520     1.0000 0.10973  0.22827  0.90817  Biso   1.000  C
  C521     1.0000 0.28013  0.43907  0.40987  Biso   1.000  C
  H277     1.0000 0.26683  0.45297  0.42487  Biso   1.000  H
  C522     1.0000 0.97863  0.02267  0.92197  Biso   1.000  C
  C523     1.0000 0.38363  0.44021  0.42547  Biso   1.000  C
  C524     1.0000 0.02244  0.04457  0.92137  Biso   1.000  C
  C525     1.0000 0.04713  0.09155  0.91967  Biso   1.000  C
  C526     1.0000 0.31913  0.44831  0.43047  Biso   1.000  C
  H278     1.0000 0.33133  0.46717  0.45997  Biso   1.000  H
  C527     1.0000 0.33993  0.42921  0.40697  Biso   1.000  C
  C528     1.0000 0.05503  0.15913  0.94977  Biso   1.000  C
  H279     1.0000 0.04613  0.17427  0.97167  Biso   1.000  H
  C529     1.0000 0.08963  0.18077  0.91337  Biso   1.000  C
  C530     1.0000 0.11173  0.33337  0.19767  Biso   1.000  C
  H280     1.0000 0.09033  0.32117  0.22427  Biso   1.000  H
  C531     1.0000 0.09553  0.40377  0.49517  Biso   1.000  C
  H281     1.0000 0.09503  0.39797  0.53307  Biso   1.000  H
  C532     1.0000 0.07513  0.43047  0.42097  Biso   1.000  C
  H282     1.0000 0.05953  0.44267  0.40847  Biso   1.000  H
  C533     1.0000 0.10133  0.32177  0.14227  Biso   1.000  C
  H283     1.0000 0.07323  0.30407  0.13177  Biso   1.000  H
  C534     1.0000 0.15263  0.36217  0.21547  Biso   1.000  C
  C535     1.0000 0.17223  0.36277  0.11627  Biso   1.000  C
  H284     1.0000 0.19253  0.37257  0.08797  Biso   1.000  H
  C536     1.0000 0.12033  0.32067  0.04137  Biso   1.000  C
  C537     1.0000 0.18433  0.37637  0.17617  Biso   1.000  C
  H285     1.0000 0.21253  0.39397  0.18627  Biso   1.000  H
  C538     1.0000 0.07453  0.42297  0.47587  Biso   1.000  C
  C539     1.0000 0.13143  0.33617  0.10567  Biso   1.000  C
  C540     1.0000 0.05433  0.44057  0.51777  Biso   1.000  C
  Co30     1.0000 0.15653  0.28667  0.82687  Biso   1.000  Co
  In30     1.0000 0.08788  0.29542  0.92594  Biso   1.000  In
  In31     1.0000 0.35945  0.13301  0.27059  Biso   1.000  In
  Co31     1.0000 0.36339  0.21551  0.18330  Biso   1.000  Co
  O136     1.0000 0.42112  0.21862  0.19710  Biso   1.000  O
  O137     1.0000 0.36642  0.11740  0.36210  Biso   1.000  O
  O138     1.0000 0.23886  0.30804  0.72846  Biso   1.000  O
  O139     1.0000 0.41956  0.18840  0.27908  Biso   1.000  O
  O140     1.0000 0.20501  0.26901  0.80361  Biso   1.000  O
  O141     1.0000 0.21770  0.91240  0.82860  Biso   1.000  O
  O142     1.0000 0.33045  0.14795  0.34483  Biso   1.000  O
  O143     1.0000 0.32836  0.15682  0.22214  Biso   1.000  O
  O144     1.0000 0.22640  0.95410  0.89930  Biso   1.000  O
  C541     1.0000 0.24550  0.01020  0.71390  Biso   1.000  C
  H286     1.0000 0.23920  0.00390  0.67620  Biso   1.000  H
  C542     1.0000 0.28360  0.08870  0.64080  Biso   1.000  C
  H287     1.0000 0.28710  0.06680  0.62680  Biso   1.000  H
  C543     1.0000 0.27460  0.05990  0.79050  Biso   1.000  C
  H288     1.0000 0.28880  0.08760  0.80390  Biso   1.000  H
  C544     1.0000 0.25640  0.18340  0.70130  Biso   1.000  C
  C545     1.0000 0.26500  0.05260  0.73520  Biso   1.000  C
  C546     1.0000 0.26500  0.11930  0.71600  Biso   1.000  C
  H289     1.0000 0.25780  0.11900  0.75330  Biso   1.000  H
  C547     1.0000 0.28970  0.12140  0.60520  Biso   1.000  C
  C548     1.0000 0.28110  0.15330  0.62500  Biso   1.000  C
  H290     1.0000 0.28400  0.17480  0.60130  Biso   1.000  H
  C549     1.0000 0.27240  0.08740  0.69620  Biso   1.000  C
  C550     1.0000 0.26750  0.25420  0.69780  Biso   1.000  C
  H291     1.0000 0.28210  0.28160  0.68370  Biso   1.000  H
  C551     1.0000 0.55250  0.30080  0.21910  Biso   1.000  C
  H292     1.0000 0.56720  0.32570  0.19840  Biso   1.000  H
  C552     1.0000 0.55123  0.25223  0.28610  Biso   1.000  C
  H293     1.0000 0.56530  0.24350  0.31040  Biso   1.000  H
  C553     1.0000 0.27530  0.22410  0.67730  Biso   1.000  C
  H294     1.0000 0.29330  0.23040  0.64690  Biso   1.000  H
  C554     1.0000 0.26810  0.15170  0.68100  Biso   1.000  C
  C555     1.0000 0.50830  0.27700  0.21440  Biso   1.000  C
  H295     1.0000 0.49420  0.28510  0.18910  Biso   1.000  H
  C556     1.0000 0.43840  0.21480  0.24150  Biso   1.000  C
  C557     1.0000 0.22760  0.17440  0.74320  Biso   1.000  C
  H296     1.0000 0.21370  0.14720  0.75820  Biso   1.000  H
  C558     1.0000 0.64400  0.28930  0.25530  Biso   1.000  C
  C559     1.0000 0.22646  0.27676  0.75880  Biso   1.000  C
  C560     1.0000 0.62210  0.31121  0.25470  Biso   1.000  C
  C561     1.0000 0.57512  0.28892  0.25300  Biso   1.000  C
  C562     1.0000 0.21836  0.20416  0.76380  Biso   1.000  C
  H297     1.0000 0.19950  0.19750  0.79330  Biso   1.000  H
  C563     1.0000 0.23746  0.24406  0.74030  Biso   1.000  C
  C564     1.0000 0.50754  0.22924  0.28310  Biso   1.000  C
  H298     1.0000 0.49240  0.20520  0.30500  Biso   1.000  H
  C565     1.0000 0.48590  0.24220  0.24670  Biso   1.000  C
  C566     1.0000 0.33330  0.11170  0.53100  Biso   1.000  C
  H299     1.0000 0.34550  0.10250  0.55760  Biso   1.000  H
  C567     1.0000 0.26290  0.02510  0.82850  Biso   1.000  C
  H300     1.0000 0.26870  0.03040  0.86640  Biso   1.000  H
  C568     1.0000 0.23620  0.97800  0.75430  Biso   1.000  C
  H301     1.0000 0.22400  0.95020  0.74180  Biso   1.000  H
  C569     1.0000 0.34490  0.11290  0.47560  Biso   1.000  C
  H302     1.0000 0.36260  0.10250  0.46510  Biso   1.000  H
  C570     1.0000 0.30450  0.12380  0.54880  Biso   1.000  C
  C571     1.0000 0.30390  0.14280  0.44960  Biso   1.000  C
  H303     1.0000 0.29410  0.15330  0.42130  Biso   1.000  H
  C572     1.0000 0.34600  0.13300  0.37470  Biso   1.000  C
  C573     1.0000 0.29030  0.14130  0.50950  Biso   1.000  C
  H304     1.0000 0.27270  0.15190  0.51960  Biso   1.000  H
  C574     1.0000 0.24370  0.98490  0.80920  Biso   1.000  C
  C575     1.0000 0.33050  0.12860  0.43900  Biso   1.000  C
  C576     1.0000 0.22610  0.94710  0.85110  Biso   1.000  C
  Co32     1.0000 0.38000  0.20320  0.16020  Biso   1.000  Co
  In32     1.0000 0.37125  0.12580  0.25927  Biso   1.000  In
  In33     1.0000 0.02611  0.46634  0.60392  Biso   1.000  In
  Co33     1.0000 0.03006  0.54884  0.51663  Biso   1.000  Co
  O145     1.0000 0.08779  0.55195  0.53043  Biso   1.000  O
  O146     1.0000 0.03309  0.45073  0.69543  Biso   1.000  O
  O147     1.0000 0.90553  0.64137  0.06179  Biso   1.000  O
  O148     1.0000 0.08623  0.52173  0.61241  Biso   1.000  O
  O149     1.0000 0.87168  0.60234  0.13694  Biso   1.000  O
  O150     1.0000 0.88437  0.24573  0.16193  Biso   1.000  O
  O151     1.0000 0.99712  0.48128  0.67816  Biso   1.000  O
  O152     1.0000 0.99503  0.49015  0.55547  Biso   1.000  O
  O153     1.0000 0.89307  0.28743  0.23263  Biso   1.000  O
  C577     1.0000 0.91217  0.34353  0.04723  Biso   1.000  C
  H305     1.0000 0.90587  0.33723  0.00953  Biso   1.000  H
  C578     1.0000 0.95027  0.42203  0.97413  Biso   1.000  C
  H306     1.0000 0.95377  0.40013  0.96013  Biso   1.000  H
  C579     1.0000 0.94127  0.39323  0.12383  Biso   1.000  C
  H307     1.0000 0.95547  0.42093  0.13723  Biso   1.000  H
  C580     1.0000 0.92307  0.51673  0.03463  Biso   1.000  C
  C581     1.0000 0.93167  0.38593  0.06853  Biso   1.000  C
  C582     1.0000 0.93167  0.45263  0.04933  Biso   1.000  C
  H308     1.0000 0.92447  0.45233  0.08663  Biso   1.000  H
  C583     1.0000 0.95637  0.45473  0.93853  Biso   1.000  C
  C584     1.0000 0.94777  0.48663  0.95833  Biso   1.000  C
  H309     1.0000 0.95067  0.50813  0.93463  Biso   1.000  H
  C585     1.0000 0.93907  0.42073  0.02953  Biso   1.000  C
  C586     1.0000 0.93417  0.58753  0.03113  Biso   1.000  C
  H310     1.0000 0.94877  0.61493  0.01703  Biso   1.000  H
  C587     1.0000 0.21917  0.63413  0.55243  Biso   1.000  C
  H311     1.0000 0.23387  0.65903  0.53173  Biso   1.000  H
  C588     1.0000 0.21790  0.58556  0.61943  Biso   1.000  C
  H312     1.0000 0.23197  0.57683  0.64373  Biso   1.000  H
  C589     1.0000 0.94197  0.55743  0.01063  Biso   1.000  C
  H313     1.0000 0.95997  0.56373  0.98023  Biso   1.000  H
  C590     1.0000 0.93477  0.48503  0.01433  Biso   1.000  C
  C591     1.0000 0.17497  0.61033  0.54773  Biso   1.000  C
  H314     1.0000 0.16087  0.61843  0.52243  Biso   1.000  H
  C592     1.0000 0.10507  0.54813  0.57483  Biso   1.000  C
  C593     1.0000 0.89427  0.50773  0.07653  Biso   1.000  C
  H315     1.0000 0.88037  0.48053  0.09153  Biso   1.000  H
  C594     1.0000 0.31067  0.62263  0.58863  Biso   1.000  C
  C595     1.0000 0.89313  0.61009  0.09213  Biso   1.000  C
  C596     1.0000 0.28877  0.64454  0.58803  Biso   1.000  C
  C597     1.0000 0.24179  0.62225  0.58633  Biso   1.000  C
  C598     1.0000 0.88503  0.53749  0.09713  Biso   1.000  C
  H316     1.0000 0.86617  0.53083  0.12663  Biso   1.000  H
  C599     1.0000 0.90413  0.57739  0.07363  Biso   1.000  C
  C600     1.0000 0.17421  0.56257  0.61643  Biso   1.000  C
  H317     1.0000 0.15907  0.53853  0.63833  Biso   1.000  H
  C601     1.0000 0.15257  0.57553  0.58003  Biso   1.000  C
  C602     1.0000 0.99997  0.44503  0.86433  Biso   1.000  C
  H318     1.0000 0.01217  0.43583  0.89093  Biso   1.000  H
  C603     1.0000 0.92957  0.35843  0.16183  Biso   1.000  C
  H319     1.0000 0.93537  0.36373  0.19973  Biso   1.000  H
  C604     1.0000 0.90287  0.31133  0.08763  Biso   1.000  C
  H320     1.0000 0.89067  0.28353  0.07513  Biso   1.000  H
  C605     1.0000 0.01157  0.44623  0.80893  Biso   1.000  C
  H321     1.0000 0.02927  0.43583  0.79843  Biso   1.000  H
  C606     1.0000 0.97117  0.45713  0.88213  Biso   1.000  C
  C607     1.0000 0.97057  0.47613  0.78293  Biso   1.000  C
  H322     1.0000 0.96077  0.48663  0.75463  Biso   1.000  H
  C608     1.0000 0.01267  0.46633  0.70803  Biso   1.000  C
  C609     1.0000 0.95697  0.47463  0.84283  Biso   1.000  C
  H323     1.0000 0.93937  0.48523  0.85293  Biso   1.000  H
  C610     1.0000 0.91037  0.31823  0.14253  Biso   1.000  C
  C611     1.0000 0.99717  0.46193  0.77233  Biso   1.000  C
  C612     1.0000 0.89277  0.28043  0.18443  Biso   1.000  C
  Co34     1.0000 0.04667  0.53653  0.49353  Biso   1.000  Co
  In34     1.0000 0.03792  0.45913  0.59260  Biso   1.000  In
  In35     1.0000 0.69278  0.79967  0.93726  Biso   1.000  In
  Co35     1.0000 0.69672  0.88218  0.84997  Biso   1.000  Co
  O154     1.0000 0.75445  0.88529  0.86377  Biso   1.000  O
  O155     1.0000 0.69975  0.78407  0.02877  Biso   1.000  O
  O156     1.0000 0.57219  0.97471  0.39513  Biso   1.000  O
  O157     1.0000 0.75289  0.85507  0.94575  Biso   1.000  O
  O158     1.0000 0.53834  0.93568  0.47028  Biso   1.000  O
  O159     1.0000 0.55103  0.57907  0.49527  Biso   1.000  O
  O160     1.0000 0.66378  0.81462  0.01150  Biso   1.000  O
  O161     1.0000 0.66169  0.82349  0.88881  Biso   1.000  O
  O162     1.0000 0.55973  0.62077  0.56597  Biso   1.000  O
  C613     1.0000 0.57883  0.67687  0.38057  Biso   1.000  C
  H324     1.0000 0.57253  0.67057  0.34287  Biso   1.000  H
  C614     1.0000 0.61693  0.75537  0.30747  Biso   1.000  C
  H325     1.0000 0.62043  0.73347  0.29347  Biso   1.000  H
  C615     1.0000 0.60793  0.72657  0.45717  Biso   1.000  C
  H326     1.0000 0.62213  0.75427  0.47057  Biso   1.000  H
  C616     1.0000 0.58973  0.85007  0.36797  Biso   1.000  C
  C617     1.0000 0.59833  0.71927  0.40187  Biso   1.000  C
  C618     1.0000 0.59833  0.78597  0.38267  Biso   1.000  C
  H327     1.0000 0.59113  0.78567  0.41997  Biso   1.000  H
  C619     1.0000 0.62303  0.78807  0.27187  Biso   1.000  C
  C620     1.0000 0.61443  0.81997  0.29167  Biso   1.000  C
  H328     1.0000 0.61733  0.84147  0.26797  Biso   1.000  H
  C621     1.0000 0.60573  0.75407  0.36287  Biso   1.000  C
  C622     1.0000 0.60083  0.92087  0.36447  Biso   1.000  C
  H329     1.0000 0.61543  0.94827  0.35037  Biso   1.000  H
  C623     1.0000 0.88583  0.96747  0.88577  Biso   1.000  C
  H330     1.0000 0.90053  0.99237  0.86507  Biso   1.000  H
  C624     1.0000 0.88456  0.91890  0.95277  Biso   1.000  C
  H331     1.0000 0.89863  0.91017  0.97707  Biso   1.000  H
  C625     1.0000 0.60863  0.89077  0.34397  Biso   1.000  C
  H332     1.0000 0.62663  0.89707  0.31357  Biso   1.000  H
  C626     1.0000 0.60143  0.81837  0.34767  Biso   1.000  C
  C627     1.0000 0.84163  0.94367  0.88107  Biso   1.000  C
  H333     1.0000 0.82753  0.95177  0.85577  Biso   1.000  H
  C628     1.0000 0.77173  0.88147  0.90817  Biso   1.000  C
  C629     1.0000 0.56093  0.84107  0.40987  Biso   1.000  C
  H334     1.0000 0.54703  0.81387  0.42487  Biso   1.000  H
  C630     1.0000 0.97733  0.95597  0.92197  Biso   1.000  C
  C631     1.0000 0.55979  0.94343  0.42547  Biso   1.000  C
  C632     1.0000 0.95543  0.97788  0.92137  Biso   1.000  C
  C633     1.0000 0.90845  0.95559  0.91967  Biso   1.000  C
  C634     1.0000 0.55169  0.87083  0.43047  Biso   1.000  C
  H335     1.0000 0.53283  0.86417  0.45997  Biso   1.000  H
  C635     1.0000 0.57079  0.91073  0.40697  Biso   1.000  C
  C636     1.0000 0.84087  0.89591  0.94977  Biso   1.000  C
  H336     1.0000 0.82573  0.87187  0.97167  Biso   1.000  H
  C637     1.0000 0.81923  0.90887  0.91337  Biso   1.000  C
  C638     1.0000 0.66663  0.77837  0.19767  Biso   1.000  C
  H337     1.0000 0.67883  0.76917  0.22427  Biso   1.000  H
  C639     1.0000 0.59623  0.69177  0.49517  Biso   1.000  C
  H338     1.0000 0.60203  0.69707  0.53307  Biso   1.000  H
  C640     1.0000 0.56953  0.64467  0.42097  Biso   1.000  C
  H339     1.0000 0.55733  0.61687  0.40847  Biso   1.000  H
  C641     1.0000 0.67823  0.77957  0.14227  Biso   1.000  C
  H340     1.0000 0.69593  0.76917  0.13177  Biso   1.000  H
  C642     1.0000 0.63783  0.79047  0.21547  Biso   1.000  C
  C643     1.0000 0.63723  0.80947  0.11627  Biso   1.000  C
  H341     1.0000 0.62743  0.81997  0.08797  Biso   1.000  H
  C644     1.0000 0.67933  0.79967  0.04137  Biso   1.000  C
  C645     1.0000 0.62363  0.80797  0.17617  Biso   1.000  C
  H342     1.0000 0.60603  0.81857  0.18627  Biso   1.000  H
  C646     1.0000 0.57703  0.65157  0.47587  Biso   1.000  C
  C647     1.0000 0.66383  0.79527  0.10567  Biso   1.000  C
  C648     1.0000 0.55943  0.61377  0.51777  Biso   1.000  C
  Co36     1.0000 0.71333  0.86987  0.82687  Biso   1.000  Co
  In36     1.0000 0.70458  0.79247  0.92594  Biso   1.000  In
