data_image0
_cell_length_a       36.218
_cell_length_b       36.218
_cell_length_c       23.612
_cell_angle_alpha    90
_cell_angle_beta     90
_cell_angle_gamma    120

_symmetry_space_group_name_H-M    "P 1"
_symmetry_int_tables_number       1

loop_
  _symmetry_equiv_pos_as_xyz
  'x, y, z'

loop_
  _atom_site_label
  _atom_site_occupancy
  _atom_site_fract_x
  _atom_site_fract_y
  _atom_site_fract_z
  _atom_site_thermal_displace_type
  _atom_site_B_iso_or_equiv
  _atom_site_type_symbol
  In1      1.0000 0.63437  0.87228  0.73985  Biso   1.000  In
  Cu1      1.0000 0.70141  0.87709  0.84568  Biso   1.000  Cu
  O1       1.0000 0.66552  0.84180  0.77980  Biso   1.000  O
  O2       1.0000 0.57830  0.76960  0.78460  Biso   1.000  O
  O3       1.0000 0.57930  0.81630  0.72250  Biso   1.000  O
  O4       1.0000 0.68500  0.93300  0.75210  Biso   1.000  O
  O5       1.0000 0.73320  0.92970  0.80330  Biso   1.000  O
  O6       1.0000 0.09120  0.32360  0.78750  Biso   1.000  O
  O7       1.0000 0.84430  0.14700  0.32350  Biso   1.000  O
  O8       1.0000 0.06500  0.27310  0.85320  Biso   1.000  O
  O9       1.0000 0.87200  0.21640  0.33880  Biso   1.000  O
  C1       1.0000 0.56250  0.78140  0.75170  Biso   1.000  C
  C2       1.0000 0.51300  0.75520  0.74550  Biso   1.000  C
  C3       1.0000 0.49220  0.71910  0.77430  Biso   1.000  C
  H1       1.0000 0.50720  0.70940  0.79580  Biso   1.000  H
  C4       1.0000 0.44780  0.69570  0.77210  Biso   1.000  C
  H2       1.0000 0.43310  0.66960  0.79070  Biso   1.000  H
  C5       1.0000 0.42580  0.71140  0.74240  Biso   1.000  C
  C6       1.0000 0.44830  0.74780  0.71110  Biso   1.000  C
  H3       1.0000 0.43380  0.75750  0.68850  Biso   1.000  H
  C7       1.0000 0.49160  0.76990  0.71300  Biso   1.000  C
  H4       1.0000 0.50670  0.79490  0.69230  Biso   1.000  H
  C8       1.0000 0.37840  0.68840  0.74190  Biso   1.000  C
  C9       1.0000 0.35570  0.70910  0.74260  Biso   1.000  C
  H5       1.0000 0.37120  0.73870  0.74360  Biso   1.000  H
  C10      1.0000 0.06070  0.28790  0.80890  Biso   1.000  C
  C11      1.0000 0.02180  0.26540  0.77490  Biso   1.000  C
  C12      1.0000 0.01970  0.27040  0.72210  Biso   1.000  C
  H6       1.0000 0.04360  0.29100  0.70290  Biso   1.000  H
  C13      1.0000 0.98150  0.24500  0.69250  Biso   1.000  C
  H7       1.0000 0.97880  0.25360  0.65640  Biso   1.000  H
  C14      1.0000 0.95490  0.20760  0.76640  Biso   1.000  C
  H8       1.0000 0.93390  0.18330  0.78430  Biso   1.000  H
  C15      1.0000 0.94850  0.20900  0.71350  Biso   1.000  C
  C16      1.0000 0.98540  0.23380  0.80050  Biso   1.000  C
  C17      1.0000 0.90980  0.17780  0.68280  Biso   1.000  C
  C18      1.0000 0.90560  0.18350  0.62610  Biso   1.000  C
  H9       1.0000 0.92730  0.20710  0.60780  Biso   1.000  H
  C19      1.0000 0.86920  0.15460  0.59480  Biso   1.000  C
  C20      1.0000 0.83920  0.11910  0.62350  Biso   1.000  C
  H10      1.0000 0.81480  0.09950  0.60400  Biso   1.000  H
  C21      1.0000 0.84300  0.11120  0.67750  Biso   1.000  C
  C22      1.0000 0.87860  0.14230  0.70750  Biso   1.000  C
  H11      1.0000 0.88070  0.13820  0.74600  Biso   1.000  H
  C23      1.0000 0.86320  0.16070  0.53260  Biso   1.000  C
  C24      1.0000 0.87960  0.20240  0.51150  Biso   1.000  C
  H12      1.0000 0.89170  0.22610  0.53500  Biso   1.000  H
  C25      1.0000 0.87650  0.20570  0.45250  Biso   1.000  C
  H13      1.0000 0.88790  0.23290  0.43730  Biso   1.000  H
  C26      1.0000 0.85840  0.17270  0.41690  Biso   1.000  C
  C27      1.0000 0.84290  0.13360  0.44050  Biso   1.000  C
  H14      1.0000 0.83000  0.11010  0.41670  Biso   1.000  H
  C28      1.0000 0.84500  0.12640  0.49690  Biso   1.000  C
  H15      1.0000 0.83440  0.09890  0.51070  Biso   1.000  H
  C29      1.0000 0.86020  0.17890  0.35420  Biso   1.000  C
  C30      1.0000 0.81170  0.07120  0.70490  Biso   1.000  C
  C31      1.0000 0.76810  0.05260  0.69150  Biso   1.000  C
  H16      1.0000 0.75910  0.06660  0.66710  Biso   1.000  H
  C32      1.0000 0.73940  0.01460  0.71370  Biso   1.000  C
  H17      1.0000 0.71080  0.00270  0.70410  Biso   1.000  H
  C33      1.0000 0.75240  0.99170  0.75290  Biso   1.000  C
  C34      1.0000 0.79510  0.00990  0.76630  Biso   1.000  C
  H18      1.0000 0.80390  0.99550  0.79050  Biso   1.000  H
  C35      1.0000 0.82570  0.04970  0.74400  Biso   1.000  C
  H19      1.0000 0.85430  0.06210  0.75420  Biso   1.000  H
  C36      1.0000 0.72180  0.94900  0.77070  Biso   1.000  C
  C37      1.0000 0.61180  0.87800  0.85900  Biso   1.000  C
  C38      1.0000 0.58260  0.88660  0.89600  Biso   1.000  C
  C39      1.0000 0.57690  0.88130  0.94900  Biso   1.000  C
  C40      1.0000 0.55640  0.90130  0.98070  Biso   1.000  C
  C41      1.0000 0.54690  0.93670  0.89180  Biso   1.000  C
  H20      1.0000 0.58570  0.86450  0.96810  Biso   1.000  H
  H21      1.0000 0.55260  0.89700  0.01960  Biso   1.000  H
  H22      1.0000 0.53830  0.95370  0.87300  Biso   1.000  H
  In2      1.0000 0.30104  0.20561  0.07318  Biso   1.000  In
  Cu2      1.0000 0.36808  0.21042  0.17901  Biso   1.000  Cu
  O10      1.0000 0.33219  0.17513  0.11313  Biso   1.000  O
  O11      1.0000 0.24497  0.10293  0.11793  Biso   1.000  O
  O12      1.0000 0.24597  0.14963  0.05583  Biso   1.000  O
  O13      1.0000 0.35167  0.26633  0.08543  Biso   1.000  O
  O14      1.0000 0.39987  0.26303  0.13663  Biso   1.000  O
  O15      1.0000 0.75787  0.65693  0.12083  Biso   1.000  O
  O16      1.0000 0.51097  0.48033  0.65683  Biso   1.000  O
  O17      1.0000 0.73167  0.60643  0.18653  Biso   1.000  O
  O18      1.0000 0.53867  0.54973  0.67213  Biso   1.000  O
  C42      1.0000 0.22917  0.11473  0.08503  Biso   1.000  C
  C43      1.0000 0.17967  0.08853  0.07883  Biso   1.000  C
  C44      1.0000 0.15887  0.05243  0.10763  Biso   1.000  C
  H23      1.0000 0.17387  0.04273  0.12913  Biso   1.000  H
  C45      1.0000 0.11447  0.02903  0.10543  Biso   1.000  C
  H24      1.0000 0.09977  0.00293  0.12403  Biso   1.000  H
  C46      1.0000 0.09247  0.04473  0.07573  Biso   1.000  C
  C47      1.0000 0.11497  0.08113  0.04443  Biso   1.000  C
  H25      1.0000 0.10047  0.09083  0.02183  Biso   1.000  H
  C48      1.0000 0.15827  0.10323  0.04633  Biso   1.000  C
  H26      1.0000 0.17337  0.12823  0.02563  Biso   1.000  H
  C49      1.0000 0.04507  0.02173  0.07523  Biso   1.000  C
  C50      1.0000 0.02237  0.04243  0.07593  Biso   1.000  C
  H27      1.0000 0.03787  0.07203  0.07693  Biso   1.000  H
  C51      1.0000 0.72737  0.62123  0.14223  Biso   1.000  C
  C52      1.0000 0.68847  0.59873  0.10823  Biso   1.000  C
  C53      1.0000 0.68637  0.60373  0.05543  Biso   1.000  C
  H28      1.0000 0.71027  0.62433  0.03623  Biso   1.000  H
  C54      1.0000 0.64817  0.57833  0.02583  Biso   1.000  C
  H29      1.0000 0.64547  0.58693  0.98973  Biso   1.000  H
  C55      1.0000 0.62157  0.54093  0.09973  Biso   1.000  C
  H30      1.0000 0.60057  0.51663  0.11763  Biso   1.000  H
  C56      1.0000 0.61517  0.54233  0.04683  Biso   1.000  C
  C57      1.0000 0.65207  0.56713  0.13383  Biso   1.000  C
  C58      1.0000 0.57647  0.51113  0.01613  Biso   1.000  C
  C59      1.0000 0.57227  0.51683  0.95943  Biso   1.000  C
  H31      1.0000 0.59397  0.54043  0.94113  Biso   1.000  H
  C60      1.0000 0.53587  0.48793  0.92813  Biso   1.000  C
  C61      1.0000 0.50587  0.45243  0.95683  Biso   1.000  C
  H32      1.0000 0.48147  0.43283  0.93733  Biso   1.000  H
  C62      1.0000 0.50967  0.44453  0.01083  Biso   1.000  C
  C63      1.0000 0.54527  0.47563  0.04083  Biso   1.000  C
  H33      1.0000 0.54737  0.47153  0.07933  Biso   1.000  H
  C64      1.0000 0.52987  0.49403  0.86593  Biso   1.000  C
  C65      1.0000 0.54627  0.53573  0.84483  Biso   1.000  C
  H34      1.0000 0.55837  0.55943  0.86833  Biso   1.000  H
  C66      1.0000 0.54317  0.53903  0.78583  Biso   1.000  C
  H35      1.0000 0.55457  0.56623  0.77063  Biso   1.000  H
  C67      1.0000 0.52507  0.50603  0.75023  Biso   1.000  C
  C68      1.0000 0.50957  0.46693  0.77383  Biso   1.000  C
  H36      1.0000 0.49667  0.44343  0.75003  Biso   1.000  H
  C69      1.0000 0.51167  0.45973  0.83023  Biso   1.000  C
  H37      1.0000 0.50107  0.43223  0.84403  Biso   1.000  H
  C70      1.0000 0.52687  0.51223  0.68753  Biso   1.000  C
  C71      1.0000 0.47837  0.40453  0.03823  Biso   1.000  C
  C72      1.0000 0.43477  0.38593  0.02483  Biso   1.000  C
  H38      1.0000 0.42577  0.39993  0.00043  Biso   1.000  H
  C73      1.0000 0.40607  0.34793  0.04703  Biso   1.000  C
  H39      1.0000 0.37747  0.33603  0.03743  Biso   1.000  H
  C74      1.0000 0.41907  0.32503  0.08623  Biso   1.000  C
  C75      1.0000 0.46177  0.34323  0.09963  Biso   1.000  C
  H40      1.0000 0.47057  0.32883  0.12383  Biso   1.000  H
  C76      1.0000 0.49237  0.38303  0.07733  Biso   1.000  C
  H41      1.0000 0.52097  0.39543  0.08753  Biso   1.000  H
  C77      1.0000 0.38847  0.28233  0.10403  Biso   1.000  C
  C78      1.0000 0.27847  0.21133  0.19233  Biso   1.000  C
  C79      1.0000 0.24927  0.21993  0.22933  Biso   1.000  C
  C80      1.0000 0.24357  0.21463  0.28233  Biso   1.000  C
  C81      1.0000 0.22307  0.23463  0.31403  Biso   1.000  C
  C82      1.0000 0.21357  0.27003  0.22513  Biso   1.000  C
  H42      1.0000 0.25237  0.19783  0.30143  Biso   1.000  H
  H43      1.0000 0.21927  0.23033  0.35293  Biso   1.000  H
  H44      1.0000 0.20497  0.28703  0.20633  Biso   1.000  H
  In3      1.0000 0.96770  0.53895  0.40652  Biso   1.000  In
  Cu3      1.0000 0.03474  0.54376  0.51235  Biso   1.000  Cu
  O19      1.0000 0.99885  0.50847  0.44647  Biso   1.000  O
  O20      1.0000 0.91163  0.43627  0.45127  Biso   1.000  O
  O21      1.0000 0.91263  0.48297  0.38917  Biso   1.000  O
  O22      1.0000 0.01833  0.59967  0.41877  Biso   1.000  O
  O23      1.0000 0.06653  0.59637  0.46997  Biso   1.000  O
  O24      1.0000 0.42453  0.99027  0.45417  Biso   1.000  O
  O25      1.0000 0.17763  0.81367  0.99017  Biso   1.000  O
  O26      1.0000 0.39833  0.93977  0.51987  Biso   1.000  O
  O27      1.0000 0.20533  0.88307  0.00547  Biso   1.000  O
  C83      1.0000 0.89583  0.44807  0.41837  Biso   1.000  C
  C84      1.0000 0.84633  0.42187  0.41217  Biso   1.000  C
  C85      1.0000 0.82553  0.38577  0.44097  Biso   1.000  C
  H45      1.0000 0.84053  0.37607  0.46247  Biso   1.000  H
  C86      1.0000 0.78113  0.36237  0.43877  Biso   1.000  C
  H46      1.0000 0.76643  0.33627  0.45737  Biso   1.000  H
  C87      1.0000 0.75913  0.37807  0.40907  Biso   1.000  C
  C88      1.0000 0.78163  0.41447  0.37777  Biso   1.000  C
  H47      1.0000 0.76713  0.42417  0.35517  Biso   1.000  H
  C89      1.0000 0.82493  0.43657  0.37967  Biso   1.000  C
  H48      1.0000 0.84003  0.46157  0.35897  Biso   1.000  H
  C90      1.0000 0.71173  0.35507  0.40857  Biso   1.000  C
  C91      1.0000 0.68903  0.37577  0.40927  Biso   1.000  C
  H49      1.0000 0.70453  0.40537  0.41027  Biso   1.000  H
  C92      1.0000 0.39403  0.95457  0.47557  Biso   1.000  C
  C93      1.0000 0.35513  0.93207  0.44157  Biso   1.000  C
  C94      1.0000 0.35303  0.93707  0.38877  Biso   1.000  C
  H50      1.0000 0.37693  0.95767  0.36957  Biso   1.000  H
  C95      1.0000 0.31483  0.91167  0.35917  Biso   1.000  C
  H51      1.0000 0.31213  0.92027  0.32307  Biso   1.000  H
  C96      1.0000 0.28823  0.87427  0.43307  Biso   1.000  C
  H52      1.0000 0.26723  0.84997  0.45097  Biso   1.000  H
  C97      1.0000 0.28183  0.87567  0.38017  Biso   1.000  C
  C98      1.0000 0.31873  0.90047  0.46717  Biso   1.000  C
  C99      1.0000 0.24313  0.84447  0.34947  Biso   1.000  C
  C100     1.0000 0.23893  0.85017  0.29277  Biso   1.000  C
  H53      1.0000 0.26063  0.87377  0.27447  Biso   1.000  H
  C101     1.0000 0.20253  0.82127  0.26147  Biso   1.000  C
  C102     1.0000 0.17253  0.78577  0.29017  Biso   1.000  C
  H54      1.0000 0.14813  0.76617  0.27067  Biso   1.000  H
  C103     1.0000 0.17633  0.77787  0.34417  Biso   1.000  C
  C104     1.0000 0.21193  0.80897  0.37417  Biso   1.000  C
  H55      1.0000 0.21403  0.80487  0.41267  Biso   1.000  H
  C105     1.0000 0.19653  0.82737  0.19927  Biso   1.000  C
  C106     1.0000 0.21293  0.86907  0.17817  Biso   1.000  C
  H56      1.0000 0.22503  0.89277  0.20167  Biso   1.000  H
  C107     1.0000 0.20983  0.87237  0.11917  Biso   1.000  C
  H57      1.0000 0.22123  0.89957  0.10397  Biso   1.000  H
  C108     1.0000 0.19173  0.83937  0.08357  Biso   1.000  C
  C109     1.0000 0.17623  0.80027  0.10717  Biso   1.000  C
  H58      1.0000 0.16333  0.77677  0.08337  Biso   1.000  H
  C110     1.0000 0.17833  0.79307  0.16357  Biso   1.000  C
  H59      1.0000 0.16773  0.76557  0.17737  Biso   1.000  H
  C111     1.0000 0.19353  0.84557  0.02087  Biso   1.000  C
  C112     1.0000 0.14503  0.73787  0.37157  Biso   1.000  C
  C113     1.0000 0.10143  0.71927  0.35817  Biso   1.000  C
  H60      1.0000 0.09243  0.73327  0.33377  Biso   1.000  H
  C114     1.0000 0.07273  0.68127  0.38037  Biso   1.000  C
  H61      1.0000 0.04413  0.66937  0.37077  Biso   1.000  H
  C115     1.0000 0.08573  0.65837  0.41957  Biso   1.000  C
  C116     1.0000 0.12843  0.67657  0.43297  Biso   1.000  C
  H62      1.0000 0.13723  0.66217  0.45717  Biso   1.000  H
  C117     1.0000 0.15903  0.71637  0.41067  Biso   1.000  C
  H63      1.0000 0.18763  0.72877  0.42087  Biso   1.000  H
  C118     1.0000 0.05513  0.61567  0.43737  Biso   1.000  C
  C119     1.0000 0.94513  0.54467  0.52567  Biso   1.000  C
  C120     1.0000 0.91593  0.55327  0.56267  Biso   1.000  C
  C121     1.0000 0.91023  0.54797  0.61567  Biso   1.000  C
  C122     1.0000 0.88973  0.56797  0.64737  Biso   1.000  C
  C123     1.0000 0.88023  0.60337  0.55847  Biso   1.000  C
  H64      1.0000 0.91903  0.53117  0.63477  Biso   1.000  H
  H65      1.0000 0.88593  0.56367  0.68627  Biso   1.000  H
  H66      1.0000 0.87163  0.62037  0.53967  Biso   1.000  H
  In4      1.0000 0.12772  0.76209  0.73985  Biso   1.000  In
  Cu4      1.0000 0.12291  0.82432  0.84568  Biso   1.000  Cu
  O28      1.0000 0.15820  0.82372  0.77980  Biso   1.000  O
  O29      1.0000 0.23040  0.80870  0.78460  Biso   1.000  O
  O30      1.0000 0.18370  0.76300  0.72250  Biso   1.000  O
  O31      1.0000 0.06700  0.75200  0.75210  Biso   1.000  O
  O32      1.0000 0.07030  0.80350  0.80330  Biso   1.000  O
  O33      1.0000 0.67640  0.76760  0.78750  Biso   1.000  O
  O34      1.0000 0.85300  0.69730  0.32350  Biso   1.000  O
  O35      1.0000 0.72690  0.79190  0.85320  Biso   1.000  O
  O36      1.0000 0.78360  0.65560  0.33880  Biso   1.000  O
  C124     1.0000 0.21860  0.78110  0.75170  Biso   1.000  C
  C125     1.0000 0.24480  0.75780  0.74550  Biso   1.000  C
  C126     1.0000 0.28090  0.77310  0.77430  Biso   1.000  C
  H67      1.0000 0.29060  0.79780  0.79580  Biso   1.000  H
  C127     1.0000 0.30430  0.75210  0.77210  Biso   1.000  C
  H68      1.0000 0.33040  0.76350  0.79070  Biso   1.000  H
  C128     1.0000 0.28860  0.71440  0.74240  Biso   1.000  C
  C129     1.0000 0.25220  0.70050  0.71110  Biso   1.000  C
  H69      1.0000 0.24250  0.67630  0.68850  Biso   1.000  H
  C130     1.0000 0.23010  0.72170  0.71300  Biso   1.000  C
  H70      1.0000 0.20510  0.71180  0.69230  Biso   1.000  H
  C131     1.0000 0.31160  0.69000  0.74190  Biso   1.000  C
  C132     1.0000 0.29090  0.64660  0.74260  Biso   1.000  C
  H71      1.0000 0.26130  0.63250  0.74360  Biso   1.000  H
  C133     1.0000 0.71210  0.77280  0.80890  Biso   1.000  C
  C134     1.0000 0.73460  0.75640  0.77490  Biso   1.000  C
  C135     1.0000 0.72960  0.74930  0.72210  Biso   1.000  C
  H72      1.0000 0.70900  0.75260  0.70290  Biso   1.000  H
  C136     1.0000 0.75500  0.73650  0.69250  Biso   1.000  C
  H73      1.0000 0.74640  0.72520  0.65640  Biso   1.000  H
  C137     1.0000 0.79240  0.74730  0.76640  Biso   1.000  C
  H74      1.0000 0.81670  0.75060  0.78430  Biso   1.000  H
  C138     1.0000 0.79100  0.73950  0.71350  Biso   1.000  C
  C139     1.0000 0.76620  0.75160  0.80050  Biso   1.000  C
  C140     1.0000 0.82220  0.73200  0.68280  Biso   1.000  C
  C141     1.0000 0.81650  0.72210  0.62610  Biso   1.000  C
  H75      1.0000 0.79290  0.72020  0.60780  Biso   1.000  H
  C142     1.0000 0.84540  0.71460  0.59480  Biso   1.000  C
  C143     1.0000 0.88090  0.72010  0.62350  Biso   1.000  C
  H76      1.0000 0.90050  0.71530  0.60400  Biso   1.000  H
  C144     1.0000 0.88880  0.73180  0.67750  Biso   1.000  C
  C145     1.0000 0.85770  0.73630  0.70750  Biso   1.000  C
  H77      1.0000 0.86180  0.74250  0.74600  Biso   1.000  H
  C146     1.0000 0.83930  0.70250  0.53260  Biso   1.000  C
  C147     1.0000 0.79760  0.67720  0.51150  Biso   1.000  C
  H78      1.0000 0.77390  0.66560  0.53500  Biso   1.000  H
  C148     1.0000 0.79430  0.67080  0.45250  Biso   1.000  C
  H79      1.0000 0.76710  0.65500  0.43730  Biso   1.000  H
  C149     1.0000 0.82730  0.68570  0.41690  Biso   1.000  C
  C150     1.0000 0.86640  0.70930  0.44050  Biso   1.000  C
  H80      1.0000 0.88990  0.71990  0.41670  Biso   1.000  H
  C151     1.0000 0.87360  0.71860  0.49690  Biso   1.000  C
  H81      1.0000 0.90110  0.73550  0.51070  Biso   1.000  H
  C152     1.0000 0.82110  0.68130  0.35420  Biso   1.000  C
  C153     1.0000 0.92880  0.74050  0.70490  Biso   1.000  C
  C154     1.0000 0.94740  0.71550  0.69150  Biso   1.000  C
  H82      1.0000 0.93340  0.69250  0.66710  Biso   1.000  H
  C155     1.0000 0.98540  0.72480  0.71370  Biso   1.000  C
  H83      1.0000 0.99730  0.70810  0.70410  Biso   1.000  H
  C156     1.0000 0.00830  0.76070  0.75290  Biso   1.000  C
  C157     1.0000 0.99010  0.78520  0.76630  Biso   1.000  C
  H84      1.0000 0.00450  0.80840  0.79050  Biso   1.000  H
  C158     1.0000 0.95030  0.77600  0.74400  Biso   1.000  C
  H85      1.0000 0.93790  0.79220  0.75420  Biso   1.000  H
  C159     1.0000 0.05100  0.77280  0.77070  Biso   1.000  C
  C160     1.0000 0.12200  0.73380  0.85900  Biso   1.000  C
  C161     1.0000 0.11340  0.69600  0.89600  Biso   1.000  C
  C162     1.0000 0.11870  0.69560  0.94900  Biso   1.000  C
  C163     1.0000 0.09870  0.65510  0.98070  Biso   1.000  C
  C164     1.0000 0.06330  0.61020  0.89180  Biso   1.000  C
  H86      1.0000 0.13550  0.72120  0.96810  Biso   1.000  H
  H87      1.0000 0.10300  0.65560  0.01960  Biso   1.000  H
  H88      1.0000 0.04630  0.58460  0.87300  Biso   1.000  H
  In5      1.0000 0.79439  0.09542  0.07318  Biso   1.000  In
  Cu5      1.0000 0.78958  0.15765  0.17901  Biso   1.000  Cu
  O37      1.0000 0.82487  0.15705  0.11313  Biso   1.000  O
  O38      1.0000 0.89707  0.14203  0.11793  Biso   1.000  O
  O39      1.0000 0.85037  0.09633  0.05583  Biso   1.000  O
  O40      1.0000 0.73367  0.08533  0.08543  Biso   1.000  O
  O41      1.0000 0.73697  0.13683  0.13663  Biso   1.000  O
  O42      1.0000 0.34307  0.10093  0.12083  Biso   1.000  O
  O43      1.0000 0.51967  0.03063  0.65683  Biso   1.000  O
  O44      1.0000 0.39357  0.12523  0.18653  Biso   1.000  O
  O45      1.0000 0.45027  0.98893  0.67213  Biso   1.000  O
  C165     1.0000 0.88527  0.11443  0.08503  Biso   1.000  C
  C166     1.0000 0.91147  0.09113  0.07883  Biso   1.000  C
  C167     1.0000 0.94757  0.10643  0.10763  Biso   1.000  C
  H89      1.0000 0.95727  0.13113  0.12913  Biso   1.000  H
  C168     1.0000 0.97097  0.08543  0.10543  Biso   1.000  C
  H90      1.0000 0.99707  0.09683  0.12403  Biso   1.000  H
  C169     1.0000 0.95527  0.04773  0.07573  Biso   1.000  C
  C170     1.0000 0.91887  0.03383  0.04443  Biso   1.000  C
  H91      1.0000 0.90917  0.00963  0.02183  Biso   1.000  H
  C171     1.0000 0.89677  0.05503  0.04633  Biso   1.000  C
  H92      1.0000 0.87177  0.04513  0.02563  Biso   1.000  H
  C172     1.0000 0.97827  0.02333  0.07523  Biso   1.000  C
  C173     1.0000 0.95757  0.97993  0.07593  Biso   1.000  C
  H93      1.0000 0.92797  0.96583  0.07693  Biso   1.000  H
  C174     1.0000 0.37877  0.10613  0.14223  Biso   1.000  C
  C175     1.0000 0.40127  0.08973  0.10823  Biso   1.000  C
  C176     1.0000 0.39627  0.08263  0.05543  Biso   1.000  C
  H94      1.0000 0.37567  0.08593  0.03623  Biso   1.000  H
  C177     1.0000 0.42167  0.06983  0.02583  Biso   1.000  C
  H95      1.0000 0.41307  0.05853  0.98973  Biso   1.000  H
  C178     1.0000 0.45907  0.08063  0.09973  Biso   1.000  C
  H96      1.0000 0.48337  0.08393  0.11763  Biso   1.000  H
  C179     1.0000 0.45767  0.07283  0.04683  Biso   1.000  C
  C180     1.0000 0.43287  0.08493  0.13383  Biso   1.000  C
  C181     1.0000 0.48887  0.06533  0.01613  Biso   1.000  C
  C182     1.0000 0.48317  0.05543  0.95943  Biso   1.000  C
  H97      1.0000 0.45957  0.05353  0.94113  Biso   1.000  H
  C183     1.0000 0.51207  0.04793  0.92813  Biso   1.000  C
  C184     1.0000 0.54757  0.05343  0.95683  Biso   1.000  C
  H98      1.0000 0.56717  0.04863  0.93733  Biso   1.000  H
  C185     1.0000 0.55547  0.06513  0.01083  Biso   1.000  C
  C186     1.0000 0.52437  0.06963  0.04083  Biso   1.000  C
  H99      1.0000 0.52847  0.07583  0.07933  Biso   1.000  H
  C187     1.0000 0.50597  0.03583  0.86593  Biso   1.000  C
  C188     1.0000 0.46427  0.01053  0.84483  Biso   1.000  C
  H100     1.0000 0.44057  0.99893  0.86833  Biso   1.000  H
  C189     1.0000 0.46097  0.00413  0.78583  Biso   1.000  C
  H101     1.0000 0.43377  0.98833  0.77063  Biso   1.000  H
  C190     1.0000 0.49397  0.01903  0.75023  Biso   1.000  C
  C191     1.0000 0.53307  0.04263  0.77383  Biso   1.000  C
  H102     1.0000 0.55657  0.05323  0.75003  Biso   1.000  H
  C192     1.0000 0.54027  0.05193  0.83023  Biso   1.000  C
  H103     1.0000 0.56777  0.06883  0.84403  Biso   1.000  H
  C193     1.0000 0.48777  0.01463  0.68753  Biso   1.000  C
  C194     1.0000 0.59547  0.07383  0.03823  Biso   1.000  C
  C195     1.0000 0.61407  0.04883  0.02483  Biso   1.000  C
  H104     1.0000 0.60007  0.02583  0.00043  Biso   1.000  H
  C196     1.0000 0.65207  0.05813  0.04703  Biso   1.000  C
  H105     1.0000 0.66397  0.04143  0.03743  Biso   1.000  H
  C197     1.0000 0.67497  0.09403  0.08623  Biso   1.000  C
  C198     1.0000 0.65677  0.11853  0.09963  Biso   1.000  C
  H106     1.0000 0.67117  0.14173  0.12383  Biso   1.000  H
  C199     1.0000 0.61697  0.10933  0.07733  Biso   1.000  C
  H107     1.0000 0.60457  0.12553  0.08753  Biso   1.000  H
  C200     1.0000 0.71767  0.10613  0.10403  Biso   1.000  C
  C201     1.0000 0.78867  0.06713  0.19233  Biso   1.000  C
  C202     1.0000 0.78007  0.02933  0.22933  Biso   1.000  C
  C203     1.0000 0.78537  0.02893  0.28233  Biso   1.000  C
  C204     1.0000 0.76537  0.98843  0.31403  Biso   1.000  C
  C205     1.0000 0.72997  0.94353  0.22513  Biso   1.000  C
  H108     1.0000 0.80217  0.05453  0.30143  Biso   1.000  H
  H109     1.0000 0.76967  0.98893  0.35293  Biso   1.000  H
  H110     1.0000 0.71297  0.91793  0.20633  Biso   1.000  H
  In6      1.0000 0.46105  0.42876  0.40652  Biso   1.000  In
  Cu6      1.0000 0.45624  0.49099  0.51235  Biso   1.000  Cu
  O46      1.0000 0.49153  0.49039  0.44647  Biso   1.000  O
  O47      1.0000 0.56373  0.47537  0.45127  Biso   1.000  O
  O48      1.0000 0.51703  0.42967  0.38917  Biso   1.000  O
  O49      1.0000 0.40033  0.41867  0.41877  Biso   1.000  O
  O50      1.0000 0.40363  0.47017  0.46997  Biso   1.000  O
  O51      1.0000 0.00973  0.43427  0.45417  Biso   1.000  O
  O52      1.0000 0.18633  0.36397  0.99017  Biso   1.000  O
  O53      1.0000 0.06023  0.45857  0.51987  Biso   1.000  O
  O54      1.0000 0.11693  0.32227  0.00547  Biso   1.000  O
  C206     1.0000 0.55193  0.44777  0.41837  Biso   1.000  C
  C207     1.0000 0.57813  0.42447  0.41217  Biso   1.000  C
  C208     1.0000 0.61423  0.43977  0.44097  Biso   1.000  C
  H111     1.0000 0.62393  0.46447  0.46247  Biso   1.000  H
  C209     1.0000 0.63763  0.41877  0.43877  Biso   1.000  C
  H112     1.0000 0.66373  0.43017  0.45737  Biso   1.000  H
  C210     1.0000 0.62193  0.38107  0.40907  Biso   1.000  C
  C211     1.0000 0.58553  0.36717  0.37777  Biso   1.000  C
  H113     1.0000 0.57583  0.34297  0.35517  Biso   1.000  H
  C212     1.0000 0.56343  0.38837  0.37967  Biso   1.000  C
  H114     1.0000 0.53843  0.37847  0.35897  Biso   1.000  H
  C213     1.0000 0.64493  0.35667  0.40857  Biso   1.000  C
  C214     1.0000 0.62423  0.31327  0.40927  Biso   1.000  C
  H115     1.0000 0.59463  0.29917  0.41027  Biso   1.000  H
  C215     1.0000 0.04543  0.43947  0.47557  Biso   1.000  C
  C216     1.0000 0.06793  0.42307  0.44157  Biso   1.000  C
  C217     1.0000 0.06293  0.41597  0.38877  Biso   1.000  C
  H116     1.0000 0.04233  0.41927  0.36957  Biso   1.000  H
  C218     1.0000 0.08833  0.40317  0.35917  Biso   1.000  C
  H117     1.0000 0.07973  0.39187  0.32307  Biso   1.000  H
  C219     1.0000 0.12573  0.41397  0.43307  Biso   1.000  C
  H118     1.0000 0.15003  0.41727  0.45097  Biso   1.000  H
  C220     1.0000 0.12433  0.40617  0.38017  Biso   1.000  C
  C221     1.0000 0.09953  0.41827  0.46717  Biso   1.000  C
  C222     1.0000 0.15553  0.39867  0.34947  Biso   1.000  C
  C223     1.0000 0.14983  0.38877  0.29277  Biso   1.000  C
  H119     1.0000 0.12623  0.38687  0.27447  Biso   1.000  H
  C224     1.0000 0.17873  0.38127  0.26147  Biso   1.000  C
  C225     1.0000 0.21423  0.38677  0.29017  Biso   1.000  C
  H120     1.0000 0.23383  0.38197  0.27067  Biso   1.000  H
  C226     1.0000 0.22213  0.39847  0.34417  Biso   1.000  C
  C227     1.0000 0.19103  0.40297  0.37417  Biso   1.000  C
  H121     1.0000 0.19513  0.40917  0.41267  Biso   1.000  H
  C228     1.0000 0.17263  0.36917  0.19927  Biso   1.000  C
  C229     1.0000 0.13093  0.34387  0.17817  Biso   1.000  C
  H122     1.0000 0.10723  0.33227  0.20167  Biso   1.000  H
  C230     1.0000 0.12763  0.33747  0.11917  Biso   1.000  C
  H123     1.0000 0.10043  0.32167  0.10397  Biso   1.000  H
  C231     1.0000 0.16063  0.35237  0.08357  Biso   1.000  C
  C232     1.0000 0.19973  0.37597  0.10717  Biso   1.000  C
  H124     1.0000 0.22323  0.38657  0.08337  Biso   1.000  H
  C233     1.0000 0.20693  0.38527  0.16357  Biso   1.000  C
  H125     1.0000 0.23443  0.40217  0.17737  Biso   1.000  H
  C234     1.0000 0.15443  0.34797  0.02087  Biso   1.000  C
  C235     1.0000 0.26213  0.40717  0.37157  Biso   1.000  C
  C236     1.0000 0.28073  0.38217  0.35817  Biso   1.000  C
  H126     1.0000 0.26673  0.35917  0.33377  Biso   1.000  H
  C237     1.0000 0.31873  0.39147  0.38037  Biso   1.000  C
  H127     1.0000 0.33063  0.37477  0.37077  Biso   1.000  H
  C238     1.0000 0.34163  0.42737  0.41957  Biso   1.000  C
  C239     1.0000 0.32343  0.45187  0.43297  Biso   1.000  C
  H128     1.0000 0.33783  0.47507  0.45717  Biso   1.000  H
  C240     1.0000 0.28363  0.44267  0.41067  Biso   1.000  C
  H129     1.0000 0.27123  0.45887  0.42087  Biso   1.000  H
  C241     1.0000 0.38433  0.43947  0.43737  Biso   1.000  C
  C242     1.0000 0.45533  0.40047  0.52567  Biso   1.000  C
  C243     1.0000 0.44673  0.36267  0.56267  Biso   1.000  C
  C244     1.0000 0.45203  0.36227  0.61567  Biso   1.000  C
  C245     1.0000 0.43203  0.32177  0.64737  Biso   1.000  C
  C246     1.0000 0.39663  0.27687  0.55847  Biso   1.000  C
  H130     1.0000 0.46883  0.38787  0.63477  Biso   1.000  H
  H131     1.0000 0.43633  0.32227  0.68627  Biso   1.000  H
  H132     1.0000 0.37963  0.25127  0.53967  Biso   1.000  H
  In7      1.0000 0.23791  0.36563  0.73985  Biso   1.000  In
  Cu7      1.0000 0.17568  0.29859  0.84568  Biso   1.000  Cu
  O55      1.0000 0.17628  0.33448  0.77980  Biso   1.000  O
  O56      1.0000 0.19130  0.42170  0.78460  Biso   1.000  O
  O57      1.0000 0.23700  0.42070  0.72250  Biso   1.000  O
  O58      1.0000 0.24800  0.31500  0.75210  Biso   1.000  O
  O59      1.0000 0.19650  0.26680  0.80330  Biso   1.000  O
  O60      1.0000 0.23240  0.90880  0.78750  Biso   1.000  O
  O61      1.0000 0.30270  0.15570  0.32350  Biso   1.000  O
  O62      1.0000 0.20810  0.93500  0.85320  Biso   1.000  O
  O63      1.0000 0.34440  0.12800  0.33880  Biso   1.000  O
  C247     1.0000 0.21890  0.43750  0.75170  Biso   1.000  C
  C248     1.0000 0.24220  0.48700  0.74550  Biso   1.000  C
  C249     1.0000 0.22690  0.50780  0.77430  Biso   1.000  C
  H133     1.0000 0.20220  0.49280  0.79580  Biso   1.000  H
  C250     1.0000 0.24790  0.55220  0.77210  Biso   1.000  C
  H134     1.0000 0.23650  0.56690  0.79070  Biso   1.000  H
  C251     1.0000 0.28560  0.57420  0.74240  Biso   1.000  C
  C252     1.0000 0.29950  0.55170  0.71110  Biso   1.000  C
  H135     1.0000 0.32370  0.56620  0.68850  Biso   1.000  H
  C253     1.0000 0.27830  0.50840  0.71300  Biso   1.000  C
  H136     1.0000 0.28820  0.49330  0.69230  Biso   1.000  H
  C254     1.0000 0.31000  0.62160  0.74190  Biso   1.000  C
  C255     1.0000 0.35340  0.64430  0.74260  Biso   1.000  C
  H137     1.0000 0.36750  0.62880  0.74360  Biso   1.000  H
  C256     1.0000 0.22720  0.93930  0.80890  Biso   1.000  C
  C257     1.0000 0.24360  0.97820  0.77490  Biso   1.000  C
  C258     1.0000 0.25070  0.98030  0.72210  Biso   1.000  C
  H138     1.0000 0.24740  0.95640  0.70290  Biso   1.000  H
  C259     1.0000 0.26350  0.01850  0.69250  Biso   1.000  C
  H139     1.0000 0.27480  0.02120  0.65640  Biso   1.000  H
  C260     1.0000 0.25270  0.04510  0.76640  Biso   1.000  C
  H140     1.0000 0.24940  0.06610  0.78430  Biso   1.000  H
  C261     1.0000 0.26050  0.05150  0.71350  Biso   1.000  C
  C262     1.0000 0.24840  0.01460  0.80050  Biso   1.000  C
  C263     1.0000 0.26800  0.09020  0.68280  Biso   1.000  C
  C264     1.0000 0.27790  0.09440  0.62610  Biso   1.000  C
  H141     1.0000 0.27980  0.07270  0.60780  Biso   1.000  H
  C265     1.0000 0.28540  0.13080  0.59480  Biso   1.000  C
  C266     1.0000 0.27990  0.16080  0.62350  Biso   1.000  C
  H142     1.0000 0.28470  0.18520  0.60400  Biso   1.000  H
  C267     1.0000 0.26820  0.15700  0.67750  Biso   1.000  C
  C268     1.0000 0.26370  0.12140  0.70750  Biso   1.000  C
  H143     1.0000 0.25750  0.11930  0.74600  Biso   1.000  H
  C269     1.0000 0.29750  0.13680  0.53260  Biso   1.000  C
  C270     1.0000 0.32280  0.12040  0.51150  Biso   1.000  C
  H144     1.0000 0.33440  0.10830  0.53500  Biso   1.000  H
  C271     1.0000 0.32920  0.12350  0.45250  Biso   1.000  C
  H145     1.0000 0.34500  0.11210  0.43730  Biso   1.000  H
  C272     1.0000 0.31430  0.14160  0.41690  Biso   1.000  C
  C273     1.0000 0.29070  0.15710  0.44050  Biso   1.000  C
  H146     1.0000 0.28010  0.17000  0.41670  Biso   1.000  H
  C274     1.0000 0.28140  0.15500  0.49690  Biso   1.000  C
  H147     1.0000 0.26450  0.16560  0.51070  Biso   1.000  H
  C275     1.0000 0.31870  0.13980  0.35420  Biso   1.000  C
  C276     1.0000 0.25950  0.18830  0.70490  Biso   1.000  C
  C277     1.0000 0.28450  0.23190  0.69150  Biso   1.000  C
  H148     1.0000 0.30750  0.24090  0.66710  Biso   1.000  H
  C278     1.0000 0.27520  0.26060  0.71370  Biso   1.000  C
  H149     1.0000 0.29190  0.28920  0.70410  Biso   1.000  H
  C279     1.0000 0.23930  0.24760  0.75290  Biso   1.000  C
  C280     1.0000 0.21480  0.20490  0.76630  Biso   1.000  C
  H150     1.0000 0.19160  0.19610  0.79050  Biso   1.000  H
  C281     1.0000 0.22400  0.17430  0.74400  Biso   1.000  C
  H151     1.0000 0.20780  0.14570  0.75420  Biso   1.000  H
  C282     1.0000 0.22720  0.27820  0.77070  Biso   1.000  C
  C283     1.0000 0.26620  0.38820  0.85900  Biso   1.000  C
  C284     1.0000 0.30400  0.41740  0.89600  Biso   1.000  C
  C285     1.0000 0.30440  0.42310  0.94900  Biso   1.000  C
  C286     1.0000 0.34490  0.44360  0.98070  Biso   1.000  C
  C287     1.0000 0.38980  0.45310  0.89180  Biso   1.000  C
  H152     1.0000 0.27880  0.41430  0.96810  Biso   1.000  H
  H153     1.0000 0.34440  0.44740  0.01960  Biso   1.000  H
  H154     1.0000 0.41540  0.46170  0.87300  Biso   1.000  H
  In8      1.0000 0.90458  0.69896  0.07318  Biso   1.000  In
  Cu8      1.0000 0.84235  0.63192  0.17901  Biso   1.000  Cu
  O64      1.0000 0.84295  0.66781  0.11313  Biso   1.000  O
  O65      1.0000 0.85797  0.75503  0.11793  Biso   1.000  O
  O66      1.0000 0.90367  0.75403  0.05583  Biso   1.000  O
  O67      1.0000 0.91467  0.64833  0.08543  Biso   1.000  O
  O68      1.0000 0.86317  0.60013  0.13663  Biso   1.000  O
  O69      1.0000 0.89907  0.24213  0.12083  Biso   1.000  O
  O70      1.0000 0.96937  0.48903  0.65683  Biso   1.000  O
  O71      1.0000 0.87477  0.26833  0.18653  Biso   1.000  O
  O72      1.0000 0.01107  0.46133  0.67213  Biso   1.000  O
  C288     1.0000 0.88557  0.77083  0.08503  Biso   1.000  C
  C289     1.0000 0.90887  0.82033  0.07883  Biso   1.000  C
  C290     1.0000 0.89357  0.84113  0.10763  Biso   1.000  C
  H155     1.0000 0.86887  0.82613  0.12913  Biso   1.000  H
  C291     1.0000 0.91457  0.88553  0.10543  Biso   1.000  C
  H156     1.0000 0.90317  0.90023  0.12403  Biso   1.000  H
  C292     1.0000 0.95227  0.90753  0.07573  Biso   1.000  C
  C293     1.0000 0.96617  0.88503  0.04443  Biso   1.000  C
  H157     1.0000 0.99037  0.89953  0.02183  Biso   1.000  H
  C294     1.0000 0.94497  0.84173  0.04633  Biso   1.000  C
  H158     1.0000 0.95487  0.82663  0.02563  Biso   1.000  H
  C295     1.0000 0.97667  0.95493  0.07523  Biso   1.000  C
  C296     1.0000 0.02007  0.97763  0.07593  Biso   1.000  C
  H159     1.0000 0.03417  0.96213  0.07693  Biso   1.000  H
  C297     1.0000 0.89387  0.27263  0.14223  Biso   1.000  C
  C298     1.0000 0.91027  0.31153  0.10823  Biso   1.000  C
  C299     1.0000 0.91737  0.31363  0.05543  Biso   1.000  C
  H160     1.0000 0.91407  0.28973  0.03623  Biso   1.000  H
  C300     1.0000 0.93017  0.35183  0.02583  Biso   1.000  C
  H161     1.0000 0.94147  0.35453  0.98973  Biso   1.000  H
  C301     1.0000 0.91937  0.37843  0.09973  Biso   1.000  C
  H162     1.0000 0.91607  0.39943  0.11763  Biso   1.000  H
  C302     1.0000 0.92717  0.38483  0.04683  Biso   1.000  C
  C303     1.0000 0.91507  0.34793  0.13383  Biso   1.000  C
  C304     1.0000 0.93467  0.42353  0.01613  Biso   1.000  C
  C305     1.0000 0.94457  0.42773  0.95943  Biso   1.000  C
  H163     1.0000 0.94647  0.40603  0.94113  Biso   1.000  H
  C306     1.0000 0.95207  0.46413  0.92813  Biso   1.000  C
  C307     1.0000 0.94657  0.49413  0.95683  Biso   1.000  C
  H164     1.0000 0.95137  0.51853  0.93733  Biso   1.000  H
  C308     1.0000 0.93487  0.49033  0.01083  Biso   1.000  C
  C309     1.0000 0.93037  0.45473  0.04083  Biso   1.000  C
  H165     1.0000 0.92417  0.45263  0.07933  Biso   1.000  H
  C310     1.0000 0.96417  0.47013  0.86593  Biso   1.000  C
  C311     1.0000 0.98947  0.45373  0.84483  Biso   1.000  C
  H166     1.0000 0.00107  0.44163  0.86833  Biso   1.000  H
  C312     1.0000 0.99587  0.45683  0.78583  Biso   1.000  C
  H167     1.0000 0.01167  0.44543  0.77063  Biso   1.000  H
  C313     1.0000 0.98097  0.47493  0.75023  Biso   1.000  C
  C314     1.0000 0.95737  0.49043  0.77383  Biso   1.000  C
  H168     1.0000 0.94677  0.50333  0.75003  Biso   1.000  H
  C315     1.0000 0.94807  0.48833  0.83023  Biso   1.000  C
  H169     1.0000 0.93117  0.49893  0.84403  Biso   1.000  H
  C316     1.0000 0.98537  0.47313  0.68753  Biso   1.000  C
  C317     1.0000 0.92617  0.52163  0.03823  Biso   1.000  C
  C318     1.0000 0.95117  0.56523  0.02483  Biso   1.000  C
  H170     1.0000 0.97417  0.57423  0.00043  Biso   1.000  H
  C319     1.0000 0.94187  0.59393  0.04703  Biso   1.000  C
  H171     1.0000 0.95857  0.62253  0.03743  Biso   1.000  H
  C320     1.0000 0.90597  0.58093  0.08623  Biso   1.000  C
  C321     1.0000 0.88147  0.53823  0.09963  Biso   1.000  C
  H172     1.0000 0.85827  0.52943  0.12383  Biso   1.000  H
  C322     1.0000 0.89067  0.50763  0.07733  Biso   1.000  C
  H173     1.0000 0.87447  0.47903  0.08753  Biso   1.000  H
  C323     1.0000 0.89387  0.61153  0.10403  Biso   1.000  C
  C324     1.0000 0.93287  0.72153  0.19233  Biso   1.000  C
  C325     1.0000 0.97067  0.75073  0.22933  Biso   1.000  C
  C326     1.0000 0.97107  0.75643  0.28233  Biso   1.000  C
  C327     1.0000 0.01157  0.77693  0.31403  Biso   1.000  C
  C328     1.0000 0.05647  0.78643  0.22513  Biso   1.000  C
  H174     1.0000 0.94547  0.74763  0.30143  Biso   1.000  H
  H175     1.0000 0.01107  0.78073  0.35293  Biso   1.000  H
  H176     1.0000 0.08207  0.79503  0.20633  Biso   1.000  H
  In9      1.0000 0.57124  0.03230  0.40652  Biso   1.000  In
  Cu9      1.0000 0.50901  0.96526  0.51235  Biso   1.000  Cu
  O73      1.0000 0.50961  0.00115  0.44647  Biso   1.000  O
  O74      1.0000 0.52463  0.08837  0.45127  Biso   1.000  O
  O75      1.0000 0.57033  0.08737  0.38917  Biso   1.000  O
  O76      1.0000 0.58133  0.98167  0.41877  Biso   1.000  O
  O77      1.0000 0.52983  0.93347  0.46997  Biso   1.000  O
  O78      1.0000 0.56573  0.57547  0.45417  Biso   1.000  O
  O79      1.0000 0.63603  0.82237  0.99017  Biso   1.000  O
  O80      1.0000 0.54143  0.60167  0.51987  Biso   1.000  O
  O81      1.0000 0.67773  0.79467  0.00547  Biso   1.000  O
  C329     1.0000 0.55223  0.10417  0.41837  Biso   1.000  C
  C330     1.0000 0.57553  0.15367  0.41217  Biso   1.000  C
  C331     1.0000 0.56023  0.17447  0.44097  Biso   1.000  C
  H177     1.0000 0.53553  0.15947  0.46247  Biso   1.000  H
  C332     1.0000 0.58123  0.21887  0.43877  Biso   1.000  C
  H178     1.0000 0.56983  0.23357  0.45737  Biso   1.000  H
  C333     1.0000 0.61893  0.24087  0.40907  Biso   1.000  C
  C334     1.0000 0.63283  0.21837  0.37777  Biso   1.000  C
  H179     1.0000 0.65703  0.23287  0.35517  Biso   1.000  H
  C335     1.0000 0.61163  0.17507  0.37967  Biso   1.000  C
  H180     1.0000 0.62153  0.15997  0.35897  Biso   1.000  H
  C336     1.0000 0.64333  0.28827  0.40857  Biso   1.000  C
  C337     1.0000 0.68673  0.31097  0.40927  Biso   1.000  C
  H181     1.0000 0.70083  0.29547  0.41027  Biso   1.000  H
  C338     1.0000 0.56053  0.60597  0.47557  Biso   1.000  C
  C339     1.0000 0.57693  0.64487  0.44157  Biso   1.000  C
  C340     1.0000 0.58403  0.64697  0.38877  Biso   1.000  C
  H182     1.0000 0.58073  0.62307  0.36957  Biso   1.000  H
  C341     1.0000 0.59683  0.68517  0.35917  Biso   1.000  C
  H183     1.0000 0.60813  0.68787  0.32307  Biso   1.000  H
  C342     1.0000 0.58603  0.71177  0.43307  Biso   1.000  C
  H184     1.0000 0.58273  0.73277  0.45097  Biso   1.000  H
  C343     1.0000 0.59383  0.71817  0.38017  Biso   1.000  C
  C344     1.0000 0.58173  0.68127  0.46717  Biso   1.000  C
  C345     1.0000 0.60133  0.75687  0.34947  Biso   1.000  C
  C346     1.0000 0.61123  0.76107  0.29277  Biso   1.000  C
  H185     1.0000 0.61313  0.73937  0.27447  Biso   1.000  H
  C347     1.0000 0.61873  0.79747  0.26147  Biso   1.000  C
  C348     1.0000 0.61323  0.82747  0.29017  Biso   1.000  C
  H186     1.0000 0.61803  0.85187  0.27067  Biso   1.000  H
  C349     1.0000 0.60153  0.82367  0.34417  Biso   1.000  C
  C350     1.0000 0.59703  0.78807  0.37417  Biso   1.000  C
  H187     1.0000 0.59083  0.78597  0.41267  Biso   1.000  H
  C351     1.0000 0.63083  0.80347  0.19927  Biso   1.000  C
  C352     1.0000 0.65613  0.78707  0.17817  Biso   1.000  C
  H188     1.0000 0.66773  0.77497  0.20167  Biso   1.000  H
  C353     1.0000 0.66253  0.79017  0.11917  Biso   1.000  C
  H189     1.0000 0.67833  0.77877  0.10397  Biso   1.000  H
  C354     1.0000 0.64763  0.80827  0.08357  Biso   1.000  C
  C355     1.0000 0.62403  0.82377  0.10717  Biso   1.000  C
  H190     1.0000 0.61343  0.83667  0.08337  Biso   1.000  H
  C356     1.0000 0.61473  0.82167  0.16357  Biso   1.000  C
  H191     1.0000 0.59783  0.83227  0.17737  Biso   1.000  H
  C357     1.0000 0.65203  0.80647  0.02087  Biso   1.000  C
  C358     1.0000 0.59283  0.85497  0.37157  Biso   1.000  C
  C359     1.0000 0.61783  0.89857  0.35817  Biso   1.000  C
  H192     1.0000 0.64083  0.90757  0.33377  Biso   1.000  H
  C360     1.0000 0.60853  0.92727  0.38037  Biso   1.000  C
  H193     1.0000 0.62523  0.95587  0.37077  Biso   1.000  H
  C361     1.0000 0.57263  0.91427  0.41957  Biso   1.000  C
  C362     1.0000 0.54813  0.87157  0.43297  Biso   1.000  C
  H194     1.0000 0.52493  0.86277  0.45717  Biso   1.000  H
  C363     1.0000 0.55733  0.84097  0.41067  Biso   1.000  C
  H195     1.0000 0.54113  0.81237  0.42087  Biso   1.000  H
  C364     1.0000 0.56053  0.94487  0.43737  Biso   1.000  C
  C365     1.0000 0.59953  0.05487  0.52567  Biso   1.000  C
  C366     1.0000 0.63733  0.08407  0.56267  Biso   1.000  C
  C367     1.0000 0.63773  0.08977  0.61567  Biso   1.000  C
  C368     1.0000 0.67823  0.11027  0.64737  Biso   1.000  C
  C369     1.0000 0.72313  0.11977  0.55847  Biso   1.000  C
  H196     1.0000 0.61213  0.08097  0.63477  Biso   1.000  H
  H197     1.0000 0.67773  0.11407  0.68627  Biso   1.000  H
  H198     1.0000 0.74873  0.12837  0.53967  Biso   1.000  H
  In10     1.0000 0.36563  0.12772  0.26015  Biso   1.000  In
  Cu10     1.0000 0.29859  0.12291  0.15432  Biso   1.000  Cu
  O82      1.0000 0.33448  0.15820  0.22020  Biso   1.000  O
  O83      1.0000 0.42170  0.23040  0.21540  Biso   1.000  O
  O84      1.0000 0.42070  0.18370  0.27750  Biso   1.000  O
  O85      1.0000 0.31500  0.06700  0.24790  Biso   1.000  O
  O86      1.0000 0.26680  0.07030  0.19670  Biso   1.000  O
  O87      1.0000 0.90880  0.67640  0.21250  Biso   1.000  O
  O88      1.0000 0.15570  0.85300  0.67650  Biso   1.000  O
  O89      1.0000 0.93500  0.72690  0.14680  Biso   1.000  O
  O90      1.0000 0.12800  0.78360  0.66120  Biso   1.000  O
  C370     1.0000 0.43750  0.21860  0.24830  Biso   1.000  C
  C371     1.0000 0.48700  0.24480  0.25450  Biso   1.000  C
  C372     1.0000 0.50780  0.28090  0.22570  Biso   1.000  C
  H199     1.0000 0.49280  0.29060  0.20420  Biso   1.000  H
  C373     1.0000 0.55220  0.30430  0.22790  Biso   1.000  C
  H200     1.0000 0.56690  0.33040  0.20930  Biso   1.000  H
  C374     1.0000 0.57420  0.28860  0.25760  Biso   1.000  C
  C375     1.0000 0.55170  0.25220  0.28890  Biso   1.000  C
  H201     1.0000 0.56620  0.24250  0.31150  Biso   1.000  H
  C376     1.0000 0.50840  0.23010  0.28700  Biso   1.000  C
  H202     1.0000 0.49330  0.20510  0.30770  Biso   1.000  H
  C377     1.0000 0.62160  0.31160  0.25810  Biso   1.000  C
  C378     1.0000 0.64430  0.29090  0.25740  Biso   1.000  C
  H203     1.0000 0.62880  0.26130  0.25640  Biso   1.000  H
  C379     1.0000 0.93930  0.71210  0.19110  Biso   1.000  C
  C380     1.0000 0.97820  0.73460  0.22510  Biso   1.000  C
  C381     1.0000 0.98030  0.72960  0.27790  Biso   1.000  C
  H204     1.0000 0.95640  0.70900  0.29710  Biso   1.000  H
  C382     1.0000 0.01850  0.75500  0.30750  Biso   1.000  C
  H205     1.0000 0.02120  0.74640  0.34360  Biso   1.000  H
  C383     1.0000 0.04510  0.79240  0.23360  Biso   1.000  C
  H206     1.0000 0.06610  0.81670  0.21570  Biso   1.000  H
  C384     1.0000 0.05150  0.79100  0.28650  Biso   1.000  C
  C385     1.0000 0.01460  0.76620  0.19950  Biso   1.000  C
  C386     1.0000 0.09020  0.82220  0.31720  Biso   1.000  C
  C387     1.0000 0.09440  0.81650  0.37390  Biso   1.000  C
  H207     1.0000 0.07270  0.79290  0.39220  Biso   1.000  H
  C388     1.0000 0.13080  0.84540  0.40520  Biso   1.000  C
  C389     1.0000 0.16080  0.88090  0.37650  Biso   1.000  C
  H208     1.0000 0.18520  0.90050  0.39600  Biso   1.000  H
  C390     1.0000 0.15700  0.88880  0.32250  Biso   1.000  C
  C391     1.0000 0.12140  0.85770  0.29250  Biso   1.000  C
  H209     1.0000 0.11930  0.86180  0.25400  Biso   1.000  H
  C392     1.0000 0.13680  0.83930  0.46740  Biso   1.000  C
  C393     1.0000 0.12040  0.79760  0.48850  Biso   1.000  C
  H210     1.0000 0.10830  0.77390  0.46500  Biso   1.000  H
  C394     1.0000 0.12350  0.79430  0.54750  Biso   1.000  C
  H211     1.0000 0.11210  0.76710  0.56270  Biso   1.000  H
  C395     1.0000 0.14160  0.82730  0.58310  Biso   1.000  C
  C396     1.0000 0.15710  0.86640  0.55950  Biso   1.000  C
  H212     1.0000 0.17000  0.88990  0.58330  Biso   1.000  H
  C397     1.0000 0.15500  0.87360  0.50310  Biso   1.000  C
  H213     1.0000 0.16560  0.90110  0.48930  Biso   1.000  H
  C398     1.0000 0.13980  0.82110  0.64580  Biso   1.000  C
  C399     1.0000 0.18830  0.92880  0.29510  Biso   1.000  C
  C400     1.0000 0.23190  0.94740  0.30850  Biso   1.000  C
  H214     1.0000 0.24090  0.93340  0.33290  Biso   1.000  H
  C401     1.0000 0.26060  0.98540  0.28630  Biso   1.000  C
  H215     1.0000 0.28920  0.99730  0.29590  Biso   1.000  H
  C402     1.0000 0.24760  0.00830  0.24710  Biso   1.000  C
  C403     1.0000 0.20490  0.99010  0.23370  Biso   1.000  C
  H216     1.0000 0.19610  0.00450  0.20950  Biso   1.000  H
  C404     1.0000 0.17430  0.95030  0.25600  Biso   1.000  C
  H217     1.0000 0.14570  0.93790  0.24580  Biso   1.000  H
  C405     1.0000 0.27820  0.05100  0.22930  Biso   1.000  C
  C406     1.0000 0.38820  0.12200  0.14100  Biso   1.000  C
  C407     1.0000 0.41740  0.11340  0.10400  Biso   1.000  C
  C408     1.0000 0.42310  0.11870  0.05100  Biso   1.000  C
  C409     1.0000 0.44360  0.09870  0.01930  Biso   1.000  C
  C410     1.0000 0.45310  0.06330  0.10820  Biso   1.000  C
  H218     1.0000 0.41430  0.13550  0.03190  Biso   1.000  H
  H219     1.0000 0.44740  0.10300  0.98040  Biso   1.000  H
  H220     1.0000 0.46170  0.04630  0.12700  Biso   1.000  H
  In11     1.0000 0.03230  0.46105  0.59348  Biso   1.000  In
  Cu11     1.0000 0.96526  0.45624  0.48765  Biso   1.000  Cu
  O91      1.0000 0.00115  0.49153  0.55353  Biso   1.000  O
  O92      1.0000 0.08837  0.56373  0.54873  Biso   1.000  O
  O93      1.0000 0.08737  0.51703  0.61083  Biso   1.000  O
  O94      1.0000 0.98167  0.40033  0.58123  Biso   1.000  O
  O95      1.0000 0.93347  0.40363  0.53003  Biso   1.000  O
  O96      1.0000 0.57547  0.00973  0.54583  Biso   1.000  O
  O97      1.0000 0.82237  0.18633  0.00983  Biso   1.000  O
  O98      1.0000 0.60167  0.06023  0.48013  Biso   1.000  O
  O99      1.0000 0.79467  0.11693  0.99453  Biso   1.000  O
  C411     1.0000 0.10417  0.55193  0.58163  Biso   1.000  C
  C412     1.0000 0.15367  0.57813  0.58783  Biso   1.000  C
  C413     1.0000 0.17447  0.61423  0.55903  Biso   1.000  C
  H221     1.0000 0.15947  0.62393  0.53753  Biso   1.000  H
  C414     1.0000 0.21887  0.63763  0.56123  Biso   1.000  C
  H222     1.0000 0.23357  0.66373  0.54263  Biso   1.000  H
  C415     1.0000 0.24087  0.62193  0.59093  Biso   1.000  C
  C416     1.0000 0.21837  0.58553  0.62223  Biso   1.000  C
  H223     1.0000 0.23287  0.57583  0.64483  Biso   1.000  H
  C417     1.0000 0.17507  0.56343  0.62033  Biso   1.000  C
  H224     1.0000 0.15997  0.53843  0.64103  Biso   1.000  H
  C418     1.0000 0.28827  0.64493  0.59143  Biso   1.000  C
  C419     1.0000 0.31097  0.62423  0.59073  Biso   1.000  C
  H225     1.0000 0.29547  0.59463  0.58973  Biso   1.000  H
  C420     1.0000 0.60597  0.04543  0.52443  Biso   1.000  C
  C421     1.0000 0.64487  0.06793  0.55843  Biso   1.000  C
  C422     1.0000 0.64697  0.06293  0.61123  Biso   1.000  C
  H226     1.0000 0.62307  0.04233  0.63043  Biso   1.000  H
  C423     1.0000 0.68517  0.08833  0.64083  Biso   1.000  C
  H227     1.0000 0.68787  0.07973  0.67693  Biso   1.000  H
  C424     1.0000 0.71177  0.12573  0.56693  Biso   1.000  C
  H228     1.0000 0.73277  0.15003  0.54903  Biso   1.000  H
  C425     1.0000 0.71817  0.12433  0.61983  Biso   1.000  C
  C426     1.0000 0.68127  0.09953  0.53283  Biso   1.000  C
  C427     1.0000 0.75687  0.15553  0.65053  Biso   1.000  C
  C428     1.0000 0.76107  0.14983  0.70723  Biso   1.000  C
  H229     1.0000 0.73937  0.12623  0.72553  Biso   1.000  H
  C429     1.0000 0.79747  0.17873  0.73853  Biso   1.000  C
  C430     1.0000 0.82747  0.21423  0.70983  Biso   1.000  C
  H230     1.0000 0.85187  0.23383  0.72933  Biso   1.000  H
  C431     1.0000 0.82367  0.22213  0.65583  Biso   1.000  C
  C432     1.0000 0.78807  0.19103  0.62583  Biso   1.000  C
  H231     1.0000 0.78597  0.19513  0.58733  Biso   1.000  H
  C433     1.0000 0.80347  0.17263  0.80073  Biso   1.000  C
  C434     1.0000 0.78707  0.13093  0.82183  Biso   1.000  C
  H232     1.0000 0.77497  0.10723  0.79833  Biso   1.000  H
  C435     1.0000 0.79017  0.12763  0.88083  Biso   1.000  C
  H233     1.0000 0.77877  0.10043  0.89603  Biso   1.000  H
  C436     1.0000 0.80827  0.16063  0.91643  Biso   1.000  C
  C437     1.0000 0.82377  0.19973  0.89283  Biso   1.000  C
  H234     1.0000 0.83667  0.22323  0.91663  Biso   1.000  H
  C438     1.0000 0.82167  0.20693  0.83643  Biso   1.000  C
  H235     1.0000 0.83227  0.23443  0.82263  Biso   1.000  H
  C439     1.0000 0.80647  0.15443  0.97913  Biso   1.000  C
  C440     1.0000 0.85497  0.26213  0.62843  Biso   1.000  C
  C441     1.0000 0.89857  0.28073  0.64183  Biso   1.000  C
  H236     1.0000 0.90757  0.26673  0.66623  Biso   1.000  H
  C442     1.0000 0.92727  0.31873  0.61963  Biso   1.000  C
  H237     1.0000 0.95587  0.33063  0.62923  Biso   1.000  H
  C443     1.0000 0.91427  0.34163  0.58043  Biso   1.000  C
  C444     1.0000 0.87157  0.32343  0.56703  Biso   1.000  C
  H238     1.0000 0.86277  0.33783  0.54283  Biso   1.000  H
  C445     1.0000 0.84097  0.28363  0.58933  Biso   1.000  C
  H239     1.0000 0.81237  0.27123  0.57913  Biso   1.000  H
  C446     1.0000 0.94487  0.38433  0.56263  Biso   1.000  C
  C447     1.0000 0.05487  0.45533  0.47433  Biso   1.000  C
  C448     1.0000 0.08407  0.44673  0.43733  Biso   1.000  C
  C449     1.0000 0.08977  0.45203  0.38433  Biso   1.000  C
  C450     1.0000 0.11027  0.43203  0.35263  Biso   1.000  C
  C451     1.0000 0.11977  0.39663  0.44153  Biso   1.000  C
  H240     1.0000 0.08097  0.46883  0.36523  Biso   1.000  H
  H241     1.0000 0.11407  0.43633  0.31373  Biso   1.000  H
  H242     1.0000 0.12837  0.37963  0.46033  Biso   1.000  H
  In12     1.0000 0.69896  0.79439  0.92682  Biso   1.000  In
  Cu12     1.0000 0.63192  0.78958  0.82099  Biso   1.000  Cu
  O100     1.0000 0.66781  0.82487  0.88687  Biso   1.000  O
  O101     1.0000 0.75503  0.89707  0.88207  Biso   1.000  O
  O102     1.0000 0.75403  0.85037  0.94417  Biso   1.000  O
  O103     1.0000 0.64833  0.73367  0.91457  Biso   1.000  O
  O104     1.0000 0.60013  0.73697  0.86337  Biso   1.000  O
  O105     1.0000 0.24213  0.34307  0.87917  Biso   1.000  O
  O106     1.0000 0.48903  0.51967  0.34317  Biso   1.000  O
  O107     1.0000 0.26833  0.39357  0.81347  Biso   1.000  O
  O108     1.0000 0.46133  0.45027  0.32787  Biso   1.000  O
  C452     1.0000 0.77083  0.88527  0.91497  Biso   1.000  C
  C453     1.0000 0.82033  0.91147  0.92117  Biso   1.000  C
  C454     1.0000 0.84113  0.94757  0.89237  Biso   1.000  C
  H243     1.0000 0.82613  0.95727  0.87087  Biso   1.000  H
  C455     1.0000 0.88553  0.97097  0.89457  Biso   1.000  C
  H244     1.0000 0.90023  0.99707  0.87597  Biso   1.000  H
  C456     1.0000 0.90753  0.95527  0.92427  Biso   1.000  C
  C457     1.0000 0.88503  0.91887  0.95557  Biso   1.000  C
  H245     1.0000 0.89953  0.90917  0.97817  Biso   1.000  H
  C458     1.0000 0.84173  0.89677  0.95367  Biso   1.000  C
  H246     1.0000 0.82663  0.87177  0.97437  Biso   1.000  H
  C459     1.0000 0.95493  0.97827  0.92477  Biso   1.000  C
  C460     1.0000 0.97763  0.95757  0.92407  Biso   1.000  C
  H247     1.0000 0.96213  0.92797  0.92307  Biso   1.000  H
  C461     1.0000 0.27263  0.37877  0.85777  Biso   1.000  C
  C462     1.0000 0.31153  0.40127  0.89177  Biso   1.000  C
  C463     1.0000 0.31363  0.39627  0.94457  Biso   1.000  C
  H248     1.0000 0.28973  0.37567  0.96377  Biso   1.000  H
  C464     1.0000 0.35183  0.42167  0.97417  Biso   1.000  C
  H249     1.0000 0.35453  0.41307  0.01027  Biso   1.000  H
  C465     1.0000 0.37843  0.45907  0.90027  Biso   1.000  C
  H250     1.0000 0.39943  0.48337  0.88237  Biso   1.000  H
  C466     1.0000 0.38483  0.45767  0.95317  Biso   1.000  C
  C467     1.0000 0.34793  0.43287  0.86617  Biso   1.000  C
  C468     1.0000 0.42353  0.48887  0.98387  Biso   1.000  C
  C469     1.0000 0.42773  0.48317  0.04057  Biso   1.000  C
  H251     1.0000 0.40603  0.45957  0.05887  Biso   1.000  H
  C470     1.0000 0.46413  0.51207  0.07187  Biso   1.000  C
  C471     1.0000 0.49413  0.54757  0.04317  Biso   1.000  C
  H252     1.0000 0.51853  0.56717  0.06267  Biso   1.000  H
  C472     1.0000 0.49033  0.55547  0.98917  Biso   1.000  C
  C473     1.0000 0.45473  0.52437  0.95917  Biso   1.000  C
  H253     1.0000 0.45263  0.52847  0.92067  Biso   1.000  H
  C474     1.0000 0.47013  0.50597  0.13407  Biso   1.000  C
  C475     1.0000 0.45373  0.46427  0.15517  Biso   1.000  C
  H254     1.0000 0.44163  0.44057  0.13167  Biso   1.000  H
  C476     1.0000 0.45683  0.46097  0.21417  Biso   1.000  C
  H255     1.0000 0.44543  0.43377  0.22937  Biso   1.000  H
  C477     1.0000 0.47493  0.49397  0.24977  Biso   1.000  C
  C478     1.0000 0.49043  0.53307  0.22617  Biso   1.000  C
  H256     1.0000 0.50333  0.55657  0.24997  Biso   1.000  H
  C479     1.0000 0.48833  0.54027  0.16977  Biso   1.000  C
  H257     1.0000 0.49893  0.56777  0.15597  Biso   1.000  H
  C480     1.0000 0.47313  0.48777  0.31247  Biso   1.000  C
  C481     1.0000 0.52163  0.59547  0.96177  Biso   1.000  C
  C482     1.0000 0.56523  0.61407  0.97517  Biso   1.000  C
  H258     1.0000 0.57423  0.60007  0.99957  Biso   1.000  H
  C483     1.0000 0.59393  0.65207  0.95297  Biso   1.000  C
  H259     1.0000 0.62253  0.66397  0.96257  Biso   1.000  H
  C484     1.0000 0.58093  0.67497  0.91377  Biso   1.000  C
  C485     1.0000 0.53823  0.65677  0.90037  Biso   1.000  C
  H260     1.0000 0.52943  0.67117  0.87617  Biso   1.000  H
  C486     1.0000 0.50763  0.61697  0.92267  Biso   1.000  C
  H261     1.0000 0.47903  0.60457  0.91247  Biso   1.000  H
  C487     1.0000 0.61153  0.71767  0.89597  Biso   1.000  C
  C488     1.0000 0.72153  0.78867  0.80767  Biso   1.000  C
  C489     1.0000 0.75073  0.78007  0.77067  Biso   1.000  C
  C490     1.0000 0.75643  0.78537  0.71767  Biso   1.000  C
  C491     1.0000 0.77693  0.76537  0.68597  Biso   1.000  C
  C492     1.0000 0.78643  0.72997  0.77487  Biso   1.000  C
  H262     1.0000 0.74763  0.80217  0.69857  Biso   1.000  H
  H263     1.0000 0.78073  0.76967  0.64707  Biso   1.000  H
  H264     1.0000 0.79503  0.71297  0.79367  Biso   1.000  H
  In13     1.0000 0.87228  0.23791  0.26015  Biso   1.000  In
  Cu13     1.0000 0.87709  0.17568  0.15432  Biso   1.000  Cu
  O109     1.0000 0.84180  0.17628  0.22020  Biso   1.000  O
  O110     1.0000 0.76960  0.19130  0.21540  Biso   1.000  O
  O111     1.0000 0.81630  0.23700  0.27750  Biso   1.000  O
  O112     1.0000 0.93300  0.24800  0.24790  Biso   1.000  O
  O113     1.0000 0.92970  0.19650  0.19670  Biso   1.000  O
  O114     1.0000 0.32360  0.23240  0.21250  Biso   1.000  O
  O115     1.0000 0.14700  0.30270  0.67650  Biso   1.000  O
  O116     1.0000 0.27310  0.20810  0.14680  Biso   1.000  O
  O117     1.0000 0.21640  0.34440  0.66120  Biso   1.000  O
  C493     1.0000 0.78140  0.21890  0.24830  Biso   1.000  C
  C494     1.0000 0.75520  0.24220  0.25450  Biso   1.000  C
  C495     1.0000 0.71910  0.22690  0.22570  Biso   1.000  C
  H265     1.0000 0.70940  0.20220  0.20420  Biso   1.000  H
  C496     1.0000 0.69570  0.24790  0.22790  Biso   1.000  C
  H266     1.0000 0.66960  0.23650  0.20930  Biso   1.000  H
  C497     1.0000 0.71140  0.28560  0.25760  Biso   1.000  C
  C498     1.0000 0.74780  0.29950  0.28890  Biso   1.000  C
  H267     1.0000 0.75750  0.32370  0.31150  Biso   1.000  H
  C499     1.0000 0.76990  0.27830  0.28700  Biso   1.000  C
  H268     1.0000 0.79490  0.28820  0.30770  Biso   1.000  H
  C500     1.0000 0.68840  0.31000  0.25810  Biso   1.000  C
  C501     1.0000 0.70910  0.35340  0.25740  Biso   1.000  C
  H269     1.0000 0.73870  0.36750  0.25640  Biso   1.000  H
  C502     1.0000 0.28790  0.22720  0.19110  Biso   1.000  C
  C503     1.0000 0.26540  0.24360  0.22510  Biso   1.000  C
  C504     1.0000 0.27040  0.25070  0.27790  Biso   1.000  C
  H270     1.0000 0.29100  0.24740  0.29710  Biso   1.000  H
  C505     1.0000 0.24500  0.26350  0.30750  Biso   1.000  C
  H271     1.0000 0.25360  0.27480  0.34360  Biso   1.000  H
  C506     1.0000 0.20760  0.25270  0.23360  Biso   1.000  C
  H272     1.0000 0.18330  0.24940  0.21570  Biso   1.000  H
  C507     1.0000 0.20900  0.26050  0.28650  Biso   1.000  C
  C508     1.0000 0.23380  0.24840  0.19950  Biso   1.000  C
  C509     1.0000 0.17780  0.26800  0.31720  Biso   1.000  C
  C510     1.0000 0.18350  0.27790  0.37390  Biso   1.000  C
  H273     1.0000 0.20710  0.27980  0.39220  Biso   1.000  H
  C511     1.0000 0.15460  0.28540  0.40520  Biso   1.000  C
  C512     1.0000 0.11910  0.27990  0.37650  Biso   1.000  C
  H274     1.0000 0.09950  0.28470  0.39600  Biso   1.000  H
  C513     1.0000 0.11120  0.26820  0.32250  Biso   1.000  C
  C514     1.0000 0.14230  0.26370  0.29250  Biso   1.000  C
  H275     1.0000 0.13820  0.25750  0.25400  Biso   1.000  H
  C515     1.0000 0.16070  0.29750  0.46740  Biso   1.000  C
  C516     1.0000 0.20240  0.32280  0.48850  Biso   1.000  C
  H276     1.0000 0.22610  0.33440  0.46500  Biso   1.000  H
  C517     1.0000 0.20570  0.32920  0.54750  Biso   1.000  C
  H277     1.0000 0.23290  0.34500  0.56270  Biso   1.000  H
  C518     1.0000 0.17270  0.31430  0.58310  Biso   1.000  C
  C519     1.0000 0.13360  0.29070  0.55950  Biso   1.000  C
  H278     1.0000 0.11010  0.28010  0.58330  Biso   1.000  H
  C520     1.0000 0.12640  0.28140  0.50310  Biso   1.000  C
  H279     1.0000 0.09890  0.26450  0.48930  Biso   1.000  H
  C521     1.0000 0.17890  0.31870  0.64580  Biso   1.000  C
  C522     1.0000 0.07120  0.25950  0.29510  Biso   1.000  C
  C523     1.0000 0.05260  0.28450  0.30850  Biso   1.000  C
  H280     1.0000 0.06660  0.30750  0.33290  Biso   1.000  H
  C524     1.0000 0.01460  0.27520  0.28630  Biso   1.000  C
  H281     1.0000 0.00270  0.29190  0.29590  Biso   1.000  H
  C525     1.0000 0.99170  0.23930  0.24710  Biso   1.000  C
  C526     1.0000 0.00990  0.21480  0.23370  Biso   1.000  C
  H282     1.0000 0.99550  0.19160  0.20950  Biso   1.000  H
  C527     1.0000 0.04970  0.22400  0.25600  Biso   1.000  C
  H283     1.0000 0.06210  0.20780  0.24580  Biso   1.000  H
  C528     1.0000 0.94900  0.22720  0.22930  Biso   1.000  C
  C529     1.0000 0.87800  0.26620  0.14100  Biso   1.000  C
  C530     1.0000 0.88660  0.30400  0.10400  Biso   1.000  C
  C531     1.0000 0.88130  0.30440  0.05100  Biso   1.000  C
  C532     1.0000 0.90130  0.34490  0.01930  Biso   1.000  C
  C533     1.0000 0.93670  0.38980  0.10820  Biso   1.000  C
  H284     1.0000 0.86450  0.27880  0.03190  Biso   1.000  H
  H285     1.0000 0.89700  0.34440  0.98040  Biso   1.000  H
  H286     1.0000 0.95370  0.41540  0.12700  Biso   1.000  H
  In14     1.0000 0.53895  0.57124  0.59348  Biso   1.000  In
  Cu14     1.0000 0.54376  0.50901  0.48765  Biso   1.000  Cu
  O118     1.0000 0.50847  0.50961  0.55353  Biso   1.000  O
  O119     1.0000 0.43627  0.52463  0.54873  Biso   1.000  O
  O120     1.0000 0.48297  0.57033  0.61083  Biso   1.000  O
  O121     1.0000 0.59967  0.58133  0.58123  Biso   1.000  O
  O122     1.0000 0.59637  0.52983  0.53003  Biso   1.000  O
  O123     1.0000 0.99027  0.56573  0.54583  Biso   1.000  O
  O124     1.0000 0.81367  0.63603  0.00983  Biso   1.000  O
  O125     1.0000 0.93977  0.54143  0.48013  Biso   1.000  O
  O126     1.0000 0.88307  0.67773  0.99453  Biso   1.000  O
  C534     1.0000 0.44807  0.55223  0.58163  Biso   1.000  C
  C535     1.0000 0.42187  0.57553  0.58783  Biso   1.000  C
  C536     1.0000 0.38577  0.56023  0.55903  Biso   1.000  C
  H287     1.0000 0.37607  0.53553  0.53753  Biso   1.000  H
  C537     1.0000 0.36237  0.58123  0.56123  Biso   1.000  C
  H288     1.0000 0.33627  0.56983  0.54263  Biso   1.000  H
  C538     1.0000 0.37807  0.61893  0.59093  Biso   1.000  C
  C539     1.0000 0.41447  0.63283  0.62223  Biso   1.000  C
  H289     1.0000 0.42417  0.65703  0.64483  Biso   1.000  H
  C540     1.0000 0.43657  0.61163  0.62033  Biso   1.000  C
  H290     1.0000 0.46157  0.62153  0.64103  Biso   1.000  H
  C541     1.0000 0.35507  0.64333  0.59143  Biso   1.000  C
  C542     1.0000 0.37577  0.68673  0.59073  Biso   1.000  C
  H291     1.0000 0.40537  0.70083  0.58973  Biso   1.000  H
  C543     1.0000 0.95457  0.56053  0.52443  Biso   1.000  C
  C544     1.0000 0.93207  0.57693  0.55843  Biso   1.000  C
  C545     1.0000 0.93707  0.58403  0.61123  Biso   1.000  C
  H292     1.0000 0.95767  0.58073  0.63043  Biso   1.000  H
  C546     1.0000 0.91167  0.59683  0.64083  Biso   1.000  C
  H293     1.0000 0.92027  0.60813  0.67693  Biso   1.000  H
  C547     1.0000 0.87427  0.58603  0.56693  Biso   1.000  C
  H294     1.0000 0.84997  0.58273  0.54903  Biso   1.000  H
  C548     1.0000 0.87567  0.59383  0.61983  Biso   1.000  C
  C549     1.0000 0.90047  0.58173  0.53283  Biso   1.000  C
  C550     1.0000 0.84447  0.60133  0.65053  Biso   1.000  C
  C551     1.0000 0.85017  0.61123  0.70723  Biso   1.000  C
  H295     1.0000 0.87377  0.61313  0.72553  Biso   1.000  H
  C552     1.0000 0.82127  0.61873  0.73853  Biso   1.000  C
  C553     1.0000 0.78577  0.61323  0.70983  Biso   1.000  C
  H296     1.0000 0.76617  0.61803  0.72933  Biso   1.000  H
  C554     1.0000 0.77787  0.60153  0.65583  Biso   1.000  C
  C555     1.0000 0.80897  0.59703  0.62583  Biso   1.000  C
  H297     1.0000 0.80487  0.59083  0.58733  Biso   1.000  H
  C556     1.0000 0.82737  0.63083  0.80073  Biso   1.000  C
  C557     1.0000 0.86907  0.65613  0.82183  Biso   1.000  C
  H298     1.0000 0.89277  0.66773  0.79833  Biso   1.000  H
  C558     1.0000 0.87237  0.66253  0.88083  Biso   1.000  C
  H299     1.0000 0.89957  0.67833  0.89603  Biso   1.000  H
  C559     1.0000 0.83937  0.64763  0.91643  Biso   1.000  C
  C560     1.0000 0.80027  0.62403  0.89283  Biso   1.000  C
  H300     1.0000 0.77677  0.61343  0.91663  Biso   1.000  H
  C561     1.0000 0.79307  0.61473  0.83643  Biso   1.000  C
  H301     1.0000 0.76557  0.59783  0.82263  Biso   1.000  H
  C562     1.0000 0.84557  0.65203  0.97913  Biso   1.000  C
  C563     1.0000 0.73787  0.59283  0.62843  Biso   1.000  C
  C564     1.0000 0.71927  0.61783  0.64183  Biso   1.000  C
  H302     1.0000 0.73327  0.64083  0.66623  Biso   1.000  H
  C565     1.0000 0.68127  0.60853  0.61963  Biso   1.000  C
  H303     1.0000 0.66937  0.62523  0.62923  Biso   1.000  H
  C566     1.0000 0.65837  0.57263  0.58043  Biso   1.000  C
  C567     1.0000 0.67657  0.54813  0.56703  Biso   1.000  C
  H304     1.0000 0.66217  0.52493  0.54283  Biso   1.000  H
  C568     1.0000 0.71637  0.55733  0.58933  Biso   1.000  C
  H305     1.0000 0.72877  0.54113  0.57913  Biso   1.000  H
  C569     1.0000 0.61567  0.56053  0.56263  Biso   1.000  C
  C570     1.0000 0.54467  0.59953  0.47433  Biso   1.000  C
  C571     1.0000 0.55327  0.63733  0.43733  Biso   1.000  C
  C572     1.0000 0.54797  0.63773  0.38433  Biso   1.000  C
  C573     1.0000 0.56797  0.67823  0.35263  Biso   1.000  C
  C574     1.0000 0.60337  0.72313  0.44153  Biso   1.000  C
  H306     1.0000 0.53117  0.61213  0.36523  Biso   1.000  H
  H307     1.0000 0.56367  0.67773  0.31373  Biso   1.000  H
  H308     1.0000 0.62037  0.74873  0.46033  Biso   1.000  H
  In15     1.0000 0.20561  0.90458  0.92682  Biso   1.000  In
  Cu15     1.0000 0.21042  0.84235  0.82099  Biso   1.000  Cu
  O127     1.0000 0.17513  0.84295  0.88687  Biso   1.000  O
  O128     1.0000 0.10293  0.85797  0.88207  Biso   1.000  O
  O129     1.0000 0.14963  0.90367  0.94417  Biso   1.000  O
  O130     1.0000 0.26633  0.91467  0.91457  Biso   1.000  O
  O131     1.0000 0.26303  0.86317  0.86337  Biso   1.000  O
  O132     1.0000 0.65693  0.89907  0.87917  Biso   1.000  O
  O133     1.0000 0.48033  0.96937  0.34317  Biso   1.000  O
  O134     1.0000 0.60643  0.87477  0.81347  Biso   1.000  O
  O135     1.0000 0.54973  0.01107  0.32787  Biso   1.000  O
  C575     1.0000 0.11473  0.88557  0.91497  Biso   1.000  C
  C576     1.0000 0.08853  0.90887  0.92117  Biso   1.000  C
  C577     1.0000 0.05243  0.89357  0.89237  Biso   1.000  C
  H309     1.0000 0.04273  0.86887  0.87087  Biso   1.000  H
  C578     1.0000 0.02903  0.91457  0.89457  Biso   1.000  C
  H310     1.0000 0.00293  0.90317  0.87597  Biso   1.000  H
  C579     1.0000 0.04473  0.95227  0.92427  Biso   1.000  C
  C580     1.0000 0.08113  0.96617  0.95557  Biso   1.000  C
  H311     1.0000 0.09083  0.99037  0.97817  Biso   1.000  H
  C581     1.0000 0.10323  0.94497  0.95367  Biso   1.000  C
  H312     1.0000 0.12823  0.95487  0.97437  Biso   1.000  H
  C582     1.0000 0.02173  0.97667  0.92477  Biso   1.000  C
  C583     1.0000 0.04243  0.02007  0.92407  Biso   1.000  C
  H313     1.0000 0.07203  0.03417  0.92307  Biso   1.000  H
  C584     1.0000 0.62123  0.89387  0.85777  Biso   1.000  C
  C585     1.0000 0.59873  0.91027  0.89177  Biso   1.000  C
  C586     1.0000 0.60373  0.91737  0.94457  Biso   1.000  C
  H314     1.0000 0.62433  0.91407  0.96377  Biso   1.000  H
  C587     1.0000 0.57833  0.93017  0.97417  Biso   1.000  C
  H315     1.0000 0.58693  0.94147  0.01027  Biso   1.000  H
  C588     1.0000 0.54093  0.91937  0.90027  Biso   1.000  C
  H316     1.0000 0.51663  0.91607  0.88237  Biso   1.000  H
  C589     1.0000 0.54233  0.92717  0.95317  Biso   1.000  C
  C590     1.0000 0.56713  0.91507  0.86617  Biso   1.000  C
  C591     1.0000 0.51113  0.93467  0.98387  Biso   1.000  C
  C592     1.0000 0.51683  0.94457  0.04057  Biso   1.000  C
  H317     1.0000 0.54043  0.94647  0.05887  Biso   1.000  H
  C593     1.0000 0.48793  0.95207  0.07187  Biso   1.000  C
  C594     1.0000 0.45243  0.94657  0.04317  Biso   1.000  C
  H318     1.0000 0.43283  0.95137  0.06267  Biso   1.000  H
  C595     1.0000 0.44453  0.93487  0.98917  Biso   1.000  C
  C596     1.0000 0.47563  0.93037  0.95917  Biso   1.000  C
  H319     1.0000 0.47153  0.92417  0.92067  Biso   1.000  H
  C597     1.0000 0.49403  0.96417  0.13407  Biso   1.000  C
  C598     1.0000 0.53573  0.98947  0.15517  Biso   1.000  C
  H320     1.0000 0.55943  0.00107  0.13167  Biso   1.000  H
  C599     1.0000 0.53903  0.99587  0.21417  Biso   1.000  C
  H321     1.0000 0.56623  0.01167  0.22937  Biso   1.000  H
  C600     1.0000 0.50603  0.98097  0.24977  Biso   1.000  C
  C601     1.0000 0.46693  0.95737  0.22617  Biso   1.000  C
  H322     1.0000 0.44343  0.94677  0.24997  Biso   1.000  H
  C602     1.0000 0.45973  0.94807  0.16977  Biso   1.000  C
  H323     1.0000 0.43223  0.93117  0.15597  Biso   1.000  H
  C603     1.0000 0.51223  0.98537  0.31247  Biso   1.000  C
  C604     1.0000 0.40453  0.92617  0.96177  Biso   1.000  C
  C605     1.0000 0.38593  0.95117  0.97517  Biso   1.000  C
  H324     1.0000 0.39993  0.97417  0.99957  Biso   1.000  H
  C606     1.0000 0.34793  0.94187  0.95297  Biso   1.000  C
  H325     1.0000 0.33603  0.95857  0.96257  Biso   1.000  H
  C607     1.0000 0.32503  0.90597  0.91377  Biso   1.000  C
  C608     1.0000 0.34323  0.88147  0.90037  Biso   1.000  C
  H326     1.0000 0.32883  0.85827  0.87617  Biso   1.000  H
  C609     1.0000 0.38303  0.89067  0.92267  Biso   1.000  C
  H327     1.0000 0.39543  0.87447  0.91247  Biso   1.000  H
  C610     1.0000 0.28233  0.89387  0.89597  Biso   1.000  C
  C611     1.0000 0.21133  0.93287  0.80767  Biso   1.000  C
  C612     1.0000 0.21993  0.97067  0.77067  Biso   1.000  C
  C613     1.0000 0.21463  0.97107  0.71767  Biso   1.000  C
  C614     1.0000 0.23463  0.01157  0.68597  Biso   1.000  C
  C615     1.0000 0.27003  0.05647  0.77487  Biso   1.000  C
  H328     1.0000 0.19783  0.94547  0.69857  Biso   1.000  H
  H329     1.0000 0.23033  0.01107  0.64707  Biso   1.000  H
  H330     1.0000 0.28703  0.08207  0.79367  Biso   1.000  H
  In16     1.0000 0.76209  0.63437  0.26015  Biso   1.000  In
  Cu16     1.0000 0.82432  0.70141  0.15432  Biso   1.000  Cu
  O136     1.0000 0.82372  0.66552  0.22020  Biso   1.000  O
  O137     1.0000 0.80870  0.57830  0.21540  Biso   1.000  O
  O138     1.0000 0.76300  0.57930  0.27750  Biso   1.000  O
  O139     1.0000 0.75200  0.68500  0.24790  Biso   1.000  O
  O140     1.0000 0.80350  0.73320  0.19670  Biso   1.000  O
  O141     1.0000 0.76760  0.09120  0.21250  Biso   1.000  O
  O142     1.0000 0.69730  0.84430  0.67650  Biso   1.000  O
  O143     1.0000 0.79190  0.06500  0.14680  Biso   1.000  O
  O144     1.0000 0.65560  0.87200  0.66120  Biso   1.000  O
  C616     1.0000 0.78110  0.56250  0.24830  Biso   1.000  C
  C617     1.0000 0.75780  0.51300  0.25450  Biso   1.000  C
  C618     1.0000 0.77310  0.49220  0.22570  Biso   1.000  C
  H331     1.0000 0.79780  0.50720  0.20420  Biso   1.000  H
  C619     1.0000 0.75210  0.44780  0.22790  Biso   1.000  C
  H332     1.0000 0.76350  0.43310  0.20930  Biso   1.000  H
  C620     1.0000 0.71440  0.42580  0.25760  Biso   1.000  C
  C621     1.0000 0.70050  0.44830  0.28890  Biso   1.000  C
  H333     1.0000 0.67630  0.43380  0.31150  Biso   1.000  H
  C622     1.0000 0.72170  0.49160  0.28700  Biso   1.000  C
  H334     1.0000 0.71180  0.50670  0.30770  Biso   1.000  H
  C623     1.0000 0.69000  0.37840  0.25810  Biso   1.000  C
  C624     1.0000 0.64660  0.35570  0.25740  Biso   1.000  C
  H335     1.0000 0.63250  0.37120  0.25640  Biso   1.000  H
  C625     1.0000 0.77280  0.06070  0.19110  Biso   1.000  C
  C626     1.0000 0.75640  0.02180  0.22510  Biso   1.000  C
  C627     1.0000 0.74930  0.01970  0.27790  Biso   1.000  C
  H336     1.0000 0.75260  0.04360  0.29710  Biso   1.000  H
  C628     1.0000 0.73650  0.98150  0.30750  Biso   1.000  C
  H337     1.0000 0.72520  0.97880  0.34360  Biso   1.000  H
  C629     1.0000 0.74730  0.95490  0.23360  Biso   1.000  C
  H338     1.0000 0.75060  0.93390  0.21570  Biso   1.000  H
  C630     1.0000 0.73950  0.94850  0.28650  Biso   1.000  C
  C631     1.0000 0.75160  0.98540  0.19950  Biso   1.000  C
  C632     1.0000 0.73200  0.90980  0.31720  Biso   1.000  C
  C633     1.0000 0.72210  0.90560  0.37390  Biso   1.000  C
  H339     1.0000 0.72020  0.92730  0.39220  Biso   1.000  H
  C634     1.0000 0.71460  0.86920  0.40520  Biso   1.000  C
  C635     1.0000 0.72010  0.83920  0.37650  Biso   1.000  C
  H340     1.0000 0.71530  0.81480  0.39600  Biso   1.000  H
  C636     1.0000 0.73180  0.84300  0.32250  Biso   1.000  C
  C637     1.0000 0.73630  0.87860  0.29250  Biso   1.000  C
  H341     1.0000 0.74250  0.88070  0.25400  Biso   1.000  H
  C638     1.0000 0.70250  0.86320  0.46740  Biso   1.000  C
  C639     1.0000 0.67720  0.87960  0.48850  Biso   1.000  C
  H342     1.0000 0.66560  0.89170  0.46500  Biso   1.000  H
  C640     1.0000 0.67080  0.87650  0.54750  Biso   1.000  C
  H343     1.0000 0.65500  0.88790  0.56270  Biso   1.000  H
  C641     1.0000 0.68570  0.85840  0.58310  Biso   1.000  C
  C642     1.0000 0.70930  0.84290  0.55950  Biso   1.000  C
  H344     1.0000 0.71990  0.83000  0.58330  Biso   1.000  H
  C643     1.0000 0.71860  0.84500  0.50310  Biso   1.000  C
  H345     1.0000 0.73550  0.83440  0.48930  Biso   1.000  H
  C644     1.0000 0.68130  0.86020  0.64580  Biso   1.000  C
  C645     1.0000 0.74050  0.81170  0.29510  Biso   1.000  C
  C646     1.0000 0.71550  0.76810  0.30850  Biso   1.000  C
  H346     1.0000 0.69250  0.75910  0.33290  Biso   1.000  H
  C647     1.0000 0.72480  0.73940  0.28630  Biso   1.000  C
  H347     1.0000 0.70810  0.71080  0.29590  Biso   1.000  H
  C648     1.0000 0.76070  0.75240  0.24710  Biso   1.000  C
  C649     1.0000 0.78520  0.79510  0.23370  Biso   1.000  C
  H348     1.0000 0.80840  0.80390  0.20950  Biso   1.000  H
  C650     1.0000 0.77600  0.82570  0.25600  Biso   1.000  C
  H349     1.0000 0.79220  0.85430  0.24580  Biso   1.000  H
  C651     1.0000 0.77280  0.72180  0.22930  Biso   1.000  C
  C652     1.0000 0.73380  0.61180  0.14100  Biso   1.000  C
  C653     1.0000 0.69600  0.58260  0.10400  Biso   1.000  C
  C654     1.0000 0.69560  0.57690  0.05100  Biso   1.000  C
  C655     1.0000 0.65510  0.55640  0.01930  Biso   1.000  C
  C656     1.0000 0.61020  0.54690  0.10820  Biso   1.000  C
  H350     1.0000 0.72120  0.58570  0.03190  Biso   1.000  H
  H351     1.0000 0.65560  0.55260  0.98040  Biso   1.000  H
  H352     1.0000 0.58460  0.53830  0.12700  Biso   1.000  H
  In17     1.0000 0.42876  0.96770  0.59348  Biso   1.000  In
  Cu17     1.0000 0.49099  0.03474  0.48765  Biso   1.000  Cu
  O145     1.0000 0.49039  0.99885  0.55353  Biso   1.000  O
  O146     1.0000 0.47537  0.91163  0.54873  Biso   1.000  O
  O147     1.0000 0.42967  0.91263  0.61083  Biso   1.000  O
  O148     1.0000 0.41867  0.01833  0.58123  Biso   1.000  O
  O149     1.0000 0.47017  0.06653  0.53003  Biso   1.000  O
  O150     1.0000 0.43427  0.42453  0.54583  Biso   1.000  O
  O151     1.0000 0.36397  0.17763  0.00983  Biso   1.000  O
  O152     1.0000 0.45857  0.39833  0.48013  Biso   1.000  O
  O153     1.0000 0.32227  0.20533  0.99453  Biso   1.000  O
  C657     1.0000 0.44777  0.89583  0.58163  Biso   1.000  C
  C658     1.0000 0.42447  0.84633  0.58783  Biso   1.000  C
  C659     1.0000 0.43977  0.82553  0.55903  Biso   1.000  C
  H353     1.0000 0.46447  0.84053  0.53753  Biso   1.000  H
  C660     1.0000 0.41877  0.78113  0.56123  Biso   1.000  C
  H354     1.0000 0.43017  0.76643  0.54263  Biso   1.000  H
  C661     1.0000 0.38107  0.75913  0.59093  Biso   1.000  C
  C662     1.0000 0.36717  0.78163  0.62223  Biso   1.000  C
  H355     1.0000 0.34297  0.76713  0.64483  Biso   1.000  H
  C663     1.0000 0.38837  0.82493  0.62033  Biso   1.000  C
  H356     1.0000 0.37847  0.84003  0.64103  Biso   1.000  H
  C664     1.0000 0.35667  0.71173  0.59143  Biso   1.000  C
  C665     1.0000 0.31327  0.68903  0.59073  Biso   1.000  C
  H357     1.0000 0.29917  0.70453  0.58973  Biso   1.000  H
  C666     1.0000 0.43947  0.39403  0.52443  Biso   1.000  C
  C667     1.0000 0.42307  0.35513  0.55843  Biso   1.000  C
  C668     1.0000 0.41597  0.35303  0.61123  Biso   1.000  C
  H358     1.0000 0.41927  0.37693  0.63043  Biso   1.000  H
  C669     1.0000 0.40317  0.31483  0.64083  Biso   1.000  C
  H359     1.0000 0.39187  0.31213  0.67693  Biso   1.000  H
  C670     1.0000 0.41397  0.28823  0.56693  Biso   1.000  C
  H360     1.0000 0.41727  0.26723  0.54903  Biso   1.000  H
  C671     1.0000 0.40617  0.28183  0.61983  Biso   1.000  C
  C672     1.0000 0.41827  0.31873  0.53283  Biso   1.000  C
  C673     1.0000 0.39867  0.24313  0.65053  Biso   1.000  C
  C674     1.0000 0.38877  0.23893  0.70723  Biso   1.000  C
  H361     1.0000 0.38687  0.26063  0.72553  Biso   1.000  H
  C675     1.0000 0.38127  0.20253  0.73853  Biso   1.000  C
  C676     1.0000 0.38677  0.17253  0.70983  Biso   1.000  C
  H362     1.0000 0.38197  0.14813  0.72933  Biso   1.000  H
  C677     1.0000 0.39847  0.17633  0.65583  Biso   1.000  C
  C678     1.0000 0.40297  0.21193  0.62583  Biso   1.000  C
  H363     1.0000 0.40917  0.21403  0.58733  Biso   1.000  H
  C679     1.0000 0.36917  0.19653  0.80073  Biso   1.000  C
  C680     1.0000 0.34387  0.21293  0.82183  Biso   1.000  C
  H364     1.0000 0.33227  0.22503  0.79833  Biso   1.000  H
  C681     1.0000 0.33747  0.20983  0.88083  Biso   1.000  C
  H365     1.0000 0.32167  0.22123  0.89603  Biso   1.000  H
  C682     1.0000 0.35237  0.19173  0.91643  Biso   1.000  C
  C683     1.0000 0.37597  0.17623  0.89283  Biso   1.000  C
  H366     1.0000 0.38657  0.16333  0.91663  Biso   1.000  H
  C684     1.0000 0.38527  0.17833  0.83643  Biso   1.000  C
  H367     1.0000 0.40217  0.16773  0.82263  Biso   1.000  H
  C685     1.0000 0.34797  0.19353  0.97913  Biso   1.000  C
  C686     1.0000 0.40717  0.14503  0.62843  Biso   1.000  C
  C687     1.0000 0.38217  0.10143  0.64183  Biso   1.000  C
  H368     1.0000 0.35917  0.09243  0.66623  Biso   1.000  H
  C688     1.0000 0.39147  0.07273  0.61963  Biso   1.000  C
  H369     1.0000 0.37477  0.04413  0.62923  Biso   1.000  H
  C689     1.0000 0.42737  0.08573  0.58043  Biso   1.000  C
  C690     1.0000 0.45187  0.12843  0.56703  Biso   1.000  C
  H370     1.0000 0.47507  0.13723  0.54283  Biso   1.000  H
  C691     1.0000 0.44267  0.15903  0.58933  Biso   1.000  C
  H371     1.0000 0.45887  0.18763  0.57913  Biso   1.000  H
  C692     1.0000 0.43947  0.05513  0.56263  Biso   1.000  C
  C693     1.0000 0.40047  0.94513  0.47433  Biso   1.000  C
  C694     1.0000 0.36267  0.91593  0.43733  Biso   1.000  C
  C695     1.0000 0.36227  0.91023  0.38433  Biso   1.000  C
  C696     1.0000 0.32177  0.88973  0.35263  Biso   1.000  C
  C697     1.0000 0.27687  0.88023  0.44153  Biso   1.000  C
  H372     1.0000 0.38787  0.91903  0.36523  Biso   1.000  H
  H373     1.0000 0.32227  0.88593  0.31373  Biso   1.000  H
  H374     1.0000 0.25127  0.87163  0.46033  Biso   1.000  H
  In18     1.0000 0.09542  0.30104  0.92682  Biso   1.000  In
  Cu18     1.0000 0.15765  0.36808  0.82099  Biso   1.000  Cu
  O154     1.0000 0.15705  0.33219  0.88687  Biso   1.000  O
  O155     1.0000 0.14203  0.24497  0.88207  Biso   1.000  O
  O156     1.0000 0.09633  0.24597  0.94417  Biso   1.000  O
  O157     1.0000 0.08533  0.35167  0.91457  Biso   1.000  O
  O158     1.0000 0.13683  0.39987  0.86337  Biso   1.000  O
  O159     1.0000 0.10093  0.75787  0.87917  Biso   1.000  O
  O160     1.0000 0.03063  0.51097  0.34317  Biso   1.000  O
  O161     1.0000 0.12523  0.73167  0.81347  Biso   1.000  O
  O162     1.0000 0.98893  0.53867  0.32787  Biso   1.000  O
  C698     1.0000 0.11443  0.22917  0.91497  Biso   1.000  C
  C699     1.0000 0.09113  0.17967  0.92117  Biso   1.000  C
  C700     1.0000 0.10643  0.15887  0.89237  Biso   1.000  C
  H375     1.0000 0.13113  0.17387  0.87087  Biso   1.000  H
  C701     1.0000 0.08543  0.11447  0.89457  Biso   1.000  C
  H376     1.0000 0.09683  0.09977  0.87597  Biso   1.000  H
  C702     1.0000 0.04773  0.09247  0.92427  Biso   1.000  C
  C703     1.0000 0.03383  0.11497  0.95557  Biso   1.000  C
  H377     1.0000 0.00963  0.10047  0.97817  Biso   1.000  H
  C704     1.0000 0.05503  0.15827  0.95367  Biso   1.000  C
  H378     1.0000 0.04513  0.17337  0.97437  Biso   1.000  H
  C705     1.0000 0.02333  0.04507  0.92477  Biso   1.000  C
  C706     1.0000 0.97993  0.02237  0.92407  Biso   1.000  C
  H379     1.0000 0.96583  0.03787  0.92307  Biso   1.000  H
  C707     1.0000 0.10613  0.72737  0.85777  Biso   1.000  C
  C708     1.0000 0.08973  0.68847  0.89177  Biso   1.000  C
  C709     1.0000 0.08263  0.68637  0.94457  Biso   1.000  C
  H380     1.0000 0.08593  0.71027  0.96377  Biso   1.000  H
  C710     1.0000 0.06983  0.64817  0.97417  Biso   1.000  C
  H381     1.0000 0.05853  0.64547  0.01027  Biso   1.000  H
  C711     1.0000 0.08063  0.62157  0.90027  Biso   1.000  C
  H382     1.0000 0.08393  0.60057  0.88237  Biso   1.000  H
  C712     1.0000 0.07283  0.61517  0.95317  Biso   1.000  C
  C713     1.0000 0.08493  0.65207  0.86617  Biso   1.000  C
  C714     1.0000 0.06533  0.57647  0.98387  Biso   1.000  C
  C715     1.0000 0.05543  0.57227  0.04057  Biso   1.000  C
  H383     1.0000 0.05353  0.59397  0.05887  Biso   1.000  H
  C716     1.0000 0.04793  0.53587  0.07187  Biso   1.000  C
  C717     1.0000 0.05343  0.50587  0.04317  Biso   1.000  C
  H384     1.0000 0.04863  0.48147  0.06267  Biso   1.000  H
  C718     1.0000 0.06513  0.50967  0.98917  Biso   1.000  C
  C719     1.0000 0.06963  0.54527  0.95917  Biso   1.000  C
  H385     1.0000 0.07583  0.54737  0.92067  Biso   1.000  H
  C720     1.0000 0.03583  0.52987  0.13407  Biso   1.000  C
  C721     1.0000 0.01053  0.54627  0.15517  Biso   1.000  C
  H386     1.0000 0.99893  0.55837  0.13167  Biso   1.000  H
  C722     1.0000 0.00413  0.54317  0.21417  Biso   1.000  C
  H387     1.0000 0.98833  0.55457  0.22937  Biso   1.000  H
  C723     1.0000 0.01903  0.52507  0.24977  Biso   1.000  C
  C724     1.0000 0.04263  0.50957  0.22617  Biso   1.000  C
  H388     1.0000 0.05323  0.49667  0.24997  Biso   1.000  H
  C725     1.0000 0.05193  0.51167  0.16977  Biso   1.000  C
  H389     1.0000 0.06883  0.50107  0.15597  Biso   1.000  H
  C726     1.0000 0.01463  0.52687  0.31247  Biso   1.000  C
  C727     1.0000 0.07383  0.47837  0.96177  Biso   1.000  C
  C728     1.0000 0.04883  0.43477  0.97517  Biso   1.000  C
  H390     1.0000 0.02583  0.42577  0.99957  Biso   1.000  H
  C729     1.0000 0.05813  0.40607  0.95297  Biso   1.000  C
  H391     1.0000 0.04143  0.37747  0.96257  Biso   1.000  H
  C730     1.0000 0.09403  0.41907  0.91377  Biso   1.000  C
  C731     1.0000 0.11853  0.46177  0.90037  Biso   1.000  C
  H392     1.0000 0.14173  0.47057  0.87617  Biso   1.000  H
  C732     1.0000 0.10933  0.49237  0.92267  Biso   1.000  C
  H393     1.0000 0.12553  0.52097  0.91247  Biso   1.000  H
  C733     1.0000 0.10613  0.38847  0.89597  Biso   1.000  C
  C734     1.0000 0.06713  0.27847  0.80767  Biso   1.000  C
  C735     1.0000 0.02933  0.24927  0.77067  Biso   1.000  C
  C736     1.0000 0.02893  0.24357  0.71767  Biso   1.000  C
  C737     1.0000 0.98843  0.22307  0.68597  Biso   1.000  C
  C738     1.0000 0.94353  0.21357  0.77487  Biso   1.000  C
  H394     1.0000 0.05453  0.25237  0.69857  Biso   1.000  H
  H395     1.0000 0.98893  0.21927  0.64707  Biso   1.000  H
  H396     1.0000 0.91793  0.20497  0.79367  Biso   1.000  H
