data_image0
_cell_length_a       49.576
_cell_length_b       49.576
_cell_length_c       9.938
_cell_angle_alpha    90
_cell_angle_beta     90
_cell_angle_gamma    120

_symmetry_space_group_name_H-M    "P 1"
_symmetry_int_tables_number       1

loop_
  _symmetry_equiv_pos_as_xyz
  'x, y, z'

loop_
  _atom_site_label
  _atom_site_occupancy
  _atom_site_fract_x
  _atom_site_fract_y
  _atom_site_fract_z
  _atom_site_thermal_displace_type
  _atom_site_B_iso_or_equiv
  _atom_site_type_symbol
  In1      1.0000 0.20761  0.79238  0.50020  Biso   1.000  In
  In2      1.0000 0.00000  0.63994  0.49996  Biso   1.000  In
  In3      1.0000 0.15966  0.57983  0.49988  Biso   1.000  In
  Co1      1.0000 0.06569  0.82024  0.16540  Biso   1.000  Co
  Co2      1.0000 0.06584  0.82042  0.83460  Biso   1.000  Co
  Co3      1.0000 0.17961  0.93434  0.16570  Biso   1.000  Co
  Co4      1.0000 0.17973  0.93429  0.83410  Biso   1.000  Co
  O1       1.0000 0.99960  0.63440  0.26640  Biso   1.000  O
  O2       1.0000 0.18710  0.81270  0.64350  Biso   1.000  O
  O3       1.0000 0.29014  0.64460  0.88570  Biso   1.000  O
  O4       1.0000 0.28886  0.64530  0.13150  Biso   1.000  O
  O5       1.0000 0.00050  0.67510  0.35580  Biso   1.000  O
  O6       1.0000 0.21140  0.78870  0.73770  Biso   1.000  O
  O7       1.0000 0.21180  0.78840  0.26370  Biso   1.000  O
  O8       1.0000 0.00020  0.63460  0.73350  Biso   1.000  O
  O9       1.0000 0.15330  0.57650  0.73900  Biso   1.000  O
  O10      1.0000 0.18700  0.81260  0.35370  Biso   1.000  O
  O11      1.0000 0.11980  0.59190  0.49950  Biso   1.000  O
  O12      1.0000 0.40810  0.87970  0.49910  Biso   1.000  O
  O13      1.0000 0.15330  0.57650  0.26440  Biso   1.000  O
  O14      1.0000 0.19660  0.74230  0.50010  Biso   1.000  O
  O15      1.0000 0.24740  0.84030  0.49950  Biso   1.000  O
  O16      1.0000 0.15970  0.75310  0.49990  Biso   1.000  O
  O17      1.0000 0.03560  0.62250  0.49920  Biso   1.000  O
  O18      1.0000 0.25790  0.80300  0.49960  Biso   1.000  O
  O19      1.0000 0.37740  0.96460  0.50040  Biso   1.000  O
  O20      1.0000 0.16870  0.62970  0.49880  Biso   1.000  O
  O21      1.0000 0.37040  0.83110  0.49920  Biso   1.000  O
  O22      1.0000 0.05130  0.67090  0.49670  Biso   1.000  O
  O23      1.0000 0.00010  0.67570  0.64490  Biso   1.000  O
  O24      1.0000 0.32890  0.94890  0.50130  Biso   1.000  O
  O25      1.0000 0.20350  0.60220  0.35220  Biso   1.000  O
  O26      1.0000 0.20320  0.60190  0.64440  Biso   1.000  O
  O27      1.0000 0.05990  0.83610  0.99660  Biso   1.000  O
  O28      1.0000 0.16390  0.94020  0.99420  Biso   1.000  O
  O29      1.0000 0.03930  0.77140  0.10800  Biso   1.000  O
  O30      1.0000 0.03870  0.77130  0.89300  Biso   1.000  O
  O31      1.0000 0.95930  0.73190  0.89200  Biso   1.000  O
  O32      1.0000 0.96000  0.73180  0.10400  Biso   1.000  O
  O33      1.0000 0.02830  0.81990  0.27100  Biso   1.000  O
  O34      1.0000 0.01840  0.80760  0.12000  Biso   1.000  O
  O35      1.0000 0.02870  0.82080  0.73400  Biso   1.000  O
  O36      1.0000 0.01810  0.80700  0.88100  Biso   1.000  O
  O37      1.0000 0.18010  0.97120  0.73000  Biso   1.000  O
  O38      1.0000 0.98170  0.78850  0.12100  Biso   1.000  O
  O39      1.0000 0.18010  0.97140  0.27000  Biso   1.000  O
  O40      1.0000 0.98200  0.78940  0.87900  Biso   1.000  O
  O41      1.0000 0.11030  0.82710  0.89900  Biso   1.000  O
  O42      1.0000 0.10100  0.86750  0.87900  Biso   1.000  O
  O43      1.0000 0.17580  0.89230  0.89500  Biso   1.000  O
  O44      1.0000 0.13720  0.91240  0.26800  Biso   1.000  O
  O45      1.0000 0.13240  0.89880  0.12200  Biso   1.000  O
  O46      1.0000 0.11170  0.82860  0.10100  Biso   1.000  O
  O47      1.0000 0.08840  0.86200  0.27100  Biso   1.000  O
  O48      1.0000 0.10130  0.86740  0.12100  Biso   1.000  O
  O49      1.0000 0.17370  0.88970  0.09800  Biso   1.000  O
  O50      1.0000 0.13760  0.91160  0.72800  Biso   1.000  O
  O51      1.0000 0.13250  0.89940  0.88100  Biso   1.000  O
  C1       1.0000 0.18180  0.59100  0.25750  Biso   1.000  C
  C2       1.0000 0.19860  0.59940  0.12530  Biso   1.000  C
  C3       1.0000 0.23220  0.61630  0.11140  Biso   1.000  C
  C4       1.0000 0.25300  0.62670  0.99640  Biso   1.000  C
  C5       1.0000 0.23160  0.61580  0.88360  Biso   1.000  C
  C6       1.0000 0.19790  0.59890  0.87260  Biso   1.000  C
  C7       1.0000 0.18130  0.59060  0.99980  Biso   1.000  C
  C8       1.0000 0.28670  0.64360  0.00830  Biso   1.000  C
  C9       1.0000 0.18320  0.59130  0.73900  Biso   1.000  C
  C10      1.0000 0.13080  0.64400  0.49990  Biso   1.000  C
  C11      1.0000 0.34170  0.90860  0.50110  Biso   1.000  C
  C12      1.0000 0.14230  0.69670  0.50270  Biso   1.000  C
  C13      1.0000 0.19680  0.80320  0.25530  Biso   1.000  C
  C14      1.0000 0.19640  0.80370  0.74700  Biso   1.000  C
  C15      1.0000 0.99970  0.65900  0.25210  Biso   1.000  C
  C16      1.0000 0.30250  0.85670  0.50380  Biso   1.000  C
  C17      1.0000 0.09120  0.65840  0.50220  Biso   1.000  C
  C18      1.0000 0.36580  0.90100  0.50080  Biso   1.000  C
  C19      1.0000 0.35560  0.86920  0.49950  Biso   1.000  C
  C20      1.0000 0.09830  0.63410  0.50010  Biso   1.000  C
  C21      1.0000 0.35010  0.94410  0.49540  Biso   1.000  C
  C22      1.0000 0.05600  0.64980  0.49560  Biso   1.000  C
  C23      1.0000 0.32340  0.84530  0.49970  Biso   1.000  C
  C24      1.0000 0.15540  0.67670  0.49830  Biso   1.000  C
  C25      1.0000 0.14030  0.62000  0.50120  Biso   1.000  C
  C26      1.0000 0.16750  0.73250  0.49790  Biso   1.000  C
  C27      1.0000 0.37960  0.85960  0.50080  Biso   1.000  C
  C28      1.0000 0.26650  0.83100  0.49940  Biso   1.000  C
  C29      1.0000 0.30960  0.88620  0.50250  Biso   1.000  C
  C30      1.0000 0.11260  0.69010  0.50200  Biso   1.000  C
  C31      1.0000 0.00020  0.65940  0.74540  Biso   1.000  C
  C32      1.0000 0.99970  0.65700  0.00020  Biso   1.000  C
  C33      1.0000 0.19710  0.80290  0.00020  Biso   1.000  C
  C34      1.0000 0.18890  0.81120  0.87000  Biso   1.000  C
  C35      1.0000 0.18970  0.81210  0.12700  Biso   1.000  C
  C36      1.0000 0.98730  0.66530  0.12100  Biso   1.000  C
  C37      1.0000 0.00870  0.67780  0.12100  Biso   1.000  C
  C38      1.0000 0.98510  0.69210  0.12900  Biso   1.000  C
  C39      1.0000 0.01800  0.70980  0.13200  Biso   1.000  C
  C40      1.0000 0.98960  0.66820  0.87700  Biso   1.000  C
  C41      1.0000 0.01210  0.67730  0.87900  Biso   1.000  C
  C42      1.0000 0.01860  0.70830  0.87400  Biso   1.000  C
  C43      1.0000 0.98260  0.69210  0.86700  Biso   1.000  C
  C44      1.0000 0.15880  0.81150  0.12000  Biso   1.000  C
  C45      1.0000 0.18730  0.84150  0.12600  Biso   1.000  C
  C46      1.0000 0.15790  0.81330  0.87700  Biso   1.000  C
  C47      1.0000 0.18780  0.84150  0.87600  Biso   1.000  C
  C48      1.0000 0.96250  0.72270  0.99200  Biso   1.000  C
  C49      1.0000 0.03670  0.76040  0.01100  Biso   1.000  C
  C50      1.0000 0.97260  0.69980  0.00100  Biso   1.000  C
  C51      1.0000 0.02690  0.72650  0.00500  Biso   1.000  C
  C52      1.0000 0.16790  0.87450  0.99600  Biso   1.000  C
  C53      1.0000 0.12440  0.83000  0.99900  Biso   1.000  C
  C54      1.0000 0.14570  0.81540  0.00300  Biso   1.000  C
  C55      1.0000 0.18380  0.85440  0.00000  Biso   1.000  C
  In4      1.0000 0.20762  0.41523  0.50020  Biso   1.000  In
  In5      1.0000 0.36006  0.36006  0.49996  Biso   1.000  In
  In6      1.0000 0.42017  0.57983  0.49988  Biso   1.000  In
  Co5      1.0000 0.17976  0.24545  0.16540  Biso   1.000  Co
  Co6      1.0000 0.17958  0.24542  0.83460  Biso   1.000  Co
  Co7      1.0000 0.06566  0.24527  0.16570  Biso   1.000  Co
  Co8      1.0000 0.06571  0.24544  0.83410  Biso   1.000  Co
  O52      1.0000 0.36560  0.36520  0.26640  Biso   1.000  O
  O53      1.0000 0.18730  0.37440  0.64350  Biso   1.000  O
  O54      1.0000 0.35540  0.64554  0.88570  Biso   1.000  O
  O55      1.0000 0.35470  0.64356  0.13150  Biso   1.000  O
  O56      1.0000 0.32490  0.32540  0.35580  Biso   1.000  O
  O57      1.0000 0.21130  0.42270  0.73770  Biso   1.000  O
  O58      1.0000 0.21160  0.42340  0.26370  Biso   1.000  O
  O59      1.0000 0.36540  0.36560  0.73350  Biso   1.000  O
  O60      1.0000 0.42350  0.57680  0.73900  Biso   1.000  O
  O61      1.0000 0.18740  0.37440  0.35370  Biso   1.000  O
  O62      1.0000 0.40810  0.52790  0.49950  Biso   1.000  O
  O63      1.0000 0.12030  0.52840  0.49910  Biso   1.000  O
  O64      1.0000 0.42350  0.57680  0.26440  Biso   1.000  O
  O65      1.0000 0.25770  0.45430  0.50010  Biso   1.000  O
  O66      1.0000 0.15970  0.40710  0.49950  Biso   1.000  O
  O67      1.0000 0.24690  0.40660  0.49990  Biso   1.000  O
  O68      1.0000 0.37750  0.41310  0.49920  Biso   1.000  O
  O69      1.0000 0.19700  0.45490  0.49960  Biso   1.000  O
  O70      1.0000 0.03540  0.41280  0.50040  Biso   1.000  O
  O71      1.0000 0.37030  0.53900  0.49880  Biso   1.000  O
  O72      1.0000 0.16890  0.53930  0.49920  Biso   1.000  O
  O73      1.0000 0.32910  0.38040  0.49670  Biso   1.000  O
  O74      1.0000 0.32430  0.32440  0.64490  Biso   1.000  O
  O75      1.0000 0.05110  0.38000  0.50130  Biso   1.000  O
  O76      1.0000 0.39780  0.60130  0.35220  Biso   1.000  O
  O77      1.0000 0.39810  0.60130  0.64440  Biso   1.000  O
  O78      1.0000 0.16390  0.22380  0.99660  Biso   1.000  O
  O79      1.0000 0.05980  0.22370  0.99420  Biso   1.000  O
  O80      1.0000 0.22860  0.26790  0.10800  Biso   1.000  O
  O81      1.0000 0.22870  0.26740  0.89300  Biso   1.000  O
  O82      1.0000 0.26810  0.22740  0.89200  Biso   1.000  O
  O83      1.0000 0.26820  0.22820  0.10400  Biso   1.000  O
  O84      1.0000 0.18010  0.20840  0.27100  Biso   1.000  O
  O85      1.0000 0.19240  0.21080  0.12000  Biso   1.000  O
  O86      1.0000 0.17920  0.20790  0.73400  Biso   1.000  O
  O87      1.0000 0.19300  0.21110  0.88100  Biso   1.000  O
  O88      1.0000 0.02880  0.20890  0.73000  Biso   1.000  O
  O89      1.0000 0.21150  0.19320  0.12100  Biso   1.000  O
  O90      1.0000 0.02860  0.20870  0.27000  Biso   1.000  O
  O91      1.0000 0.21060  0.19260  0.87900  Biso   1.000  O
  O92      1.0000 0.17290  0.28320  0.89900  Biso   1.000  O
  O93      1.0000 0.13250  0.23350  0.87900  Biso   1.000  O
  O94      1.0000 0.10770  0.28350  0.89500  Biso   1.000  O
  O95      1.0000 0.08760  0.22480  0.26800  Biso   1.000  O
  O96      1.0000 0.10120  0.23360  0.12200  Biso   1.000  O
  O97      1.0000 0.17140  0.28310  0.10100  Biso   1.000  O
  O98      1.0000 0.13800  0.22640  0.27100  Biso   1.000  O
  O99      1.0000 0.13260  0.23390  0.12100  Biso   1.000  O
  O100     1.0000 0.11030  0.28400  0.09800  Biso   1.000  O
  O101     1.0000 0.08840  0.22600  0.72800  Biso   1.000  O
  O102     1.0000 0.10060  0.23310  0.88100  Biso   1.000  O
  C56      1.0000 0.40900  0.59080  0.25750  Biso   1.000  C
  C57      1.0000 0.40060  0.59920  0.12530  Biso   1.000  C
  C58      1.0000 0.38370  0.61590  0.11140  Biso   1.000  C
  C59      1.0000 0.37330  0.62630  0.99640  Biso   1.000  C
  C60      1.0000 0.38420  0.61580  0.88360  Biso   1.000  C
  C61      1.0000 0.40110  0.59900  0.87260  Biso   1.000  C
  C62      1.0000 0.40940  0.59070  0.99980  Biso   1.000  C
  C63      1.0000 0.35640  0.64310  0.00830  Biso   1.000  C
  C64      1.0000 0.40870  0.59190  0.73900  Biso   1.000  C
  C65      1.0000 0.35600  0.48680  0.49990  Biso   1.000  C
  C66      1.0000 0.09140  0.43310  0.50110  Biso   1.000  C
  C67      1.0000 0.30330  0.44560  0.50270  Biso   1.000  C
  C68      1.0000 0.19680  0.39360  0.25530  Biso   1.000  C
  C69      1.0000 0.19630  0.39270  0.74700  Biso   1.000  C
  C70      1.0000 0.34100  0.34070  0.25210  Biso   1.000  C
  C71      1.0000 0.14330  0.44580  0.50380  Biso   1.000  C
  C72      1.0000 0.34160  0.43280  0.50220  Biso   1.000  C
  C73      1.0000 0.09900  0.46480  0.50080  Biso   1.000  C
  C74      1.0000 0.13080  0.48640  0.49950  Biso   1.000  C
  C75      1.0000 0.36590  0.46420  0.50010  Biso   1.000  C
  C76      1.0000 0.05590  0.40600  0.49540  Biso   1.000  C
  C77      1.0000 0.35020  0.40620  0.49560  Biso   1.000  C
  C78      1.0000 0.15470  0.47810  0.49970  Biso   1.000  C
  C79      1.0000 0.32330  0.47870  0.49830  Biso   1.000  C
  C80      1.0000 0.38000  0.52030  0.50120  Biso   1.000  C
  C81      1.0000 0.26750  0.43500  0.49790  Biso   1.000  C
  C82      1.0000 0.14040  0.52000  0.50080  Biso   1.000  C
  C83      1.0000 0.16900  0.43550  0.49940  Biso   1.000  C
  C84      1.0000 0.11380  0.42340  0.50250  Biso   1.000  C
  C85      1.0000 0.30990  0.42250  0.50200  Biso   1.000  C
  C86      1.0000 0.34060  0.34080  0.74540  Biso   1.000  C
  C87      1.0000 0.34300  0.34270  0.00020  Biso   1.000  C
  C88      1.0000 0.19710  0.39420  0.00020  Biso   1.000  C
  C89      1.0000 0.18880  0.37770  0.87000  Biso   1.000  C
  C90      1.0000 0.18790  0.37760  0.12700  Biso   1.000  C
  C91      1.0000 0.33470  0.32200  0.12100  Biso   1.000  C
  C92      1.0000 0.32220  0.33090  0.12100  Biso   1.000  C
  C93      1.0000 0.30790  0.29300  0.12900  Biso   1.000  C
  C94      1.0000 0.29020  0.30820  0.13200  Biso   1.000  C
  C95      1.0000 0.33180  0.32140  0.87700  Biso   1.000  C
  C96      1.0000 0.32270  0.33480  0.87900  Biso   1.000  C
  C97      1.0000 0.29170  0.31030  0.87400  Biso   1.000  C
  C98      1.0000 0.30790  0.29050  0.86700  Biso   1.000  C
  C99      1.0000 0.18850  0.34730  0.12000  Biso   1.000  C
  C100     1.0000 0.15850  0.34580  0.12600  Biso   1.000  C
  C101     1.0000 0.18670  0.34460  0.87700  Biso   1.000  C
  C102     1.0000 0.15850  0.34630  0.87600  Biso   1.000  C
  C103     1.0000 0.27730  0.23980  0.99200  Biso   1.000  C
  C104     1.0000 0.23960  0.27630  0.01100  Biso   1.000  C
  C105     1.0000 0.30020  0.27280  0.00100  Biso   1.000  C
  C106     1.0000 0.27350  0.30040  0.00500  Biso   1.000  C
  C107     1.0000 0.12550  0.29340  0.99600  Biso   1.000  C
  C108     1.0000 0.17000  0.29440  0.99900  Biso   1.000  C
  C109     1.0000 0.18460  0.33030  0.00300  Biso   1.000  C
  C110     1.0000 0.14560  0.32940  0.00000  Biso   1.000  C
  In7      1.0000 0.58477  0.79239  0.50020  Biso   1.000  In
  In8      1.0000 0.63994  0.00000  0.49996  Biso   1.000  In
  In9      1.0000 0.42017  0.84034  0.49988  Biso   1.000  In
  Co9      1.0000 0.75455  0.93431  0.16540  Biso   1.000  Co
  Co10     1.0000 0.75458  0.93416  0.83460  Biso   1.000  Co
  Co11     1.0000 0.75473  0.82039  0.16570  Biso   1.000  Co
  Co12     1.0000 0.75456  0.82027  0.83410  Biso   1.000  Co
  O103     1.0000 0.63480  0.00040  0.26640  Biso   1.000  O
  O104     1.0000 0.62560  0.81290  0.64350  Biso   1.000  O
  O105     1.0000 0.35446  0.70986  0.88570  Biso   1.000  O
  O106     1.0000 0.35644  0.71114  0.13150  Biso   1.000  O
  O107     1.0000 0.67460  0.99950  0.35580  Biso   1.000  O
  O108     1.0000 0.57730  0.78860  0.73770  Biso   1.000  O
  O109     1.0000 0.57660  0.78820  0.26370  Biso   1.000  O
  O110     1.0000 0.63440  0.99980  0.73350  Biso   1.000  O
  O111     1.0000 0.42320  0.84670  0.73900  Biso   1.000  O
  O112     1.0000 0.62560  0.81300  0.35370  Biso   1.000  O
  O113     1.0000 0.47210  0.88020  0.49950  Biso   1.000  O
  O114     1.0000 0.47160  0.59190  0.49910  Biso   1.000  O
  O115     1.0000 0.42320  0.84670  0.26440  Biso   1.000  O
  O116     1.0000 0.54570  0.80340  0.50010  Biso   1.000  O
  O117     1.0000 0.59290  0.75260  0.49950  Biso   1.000  O
  O118     1.0000 0.59340  0.84030  0.49990  Biso   1.000  O
  O119     1.0000 0.58690  0.96440  0.49920  Biso   1.000  O
  O120     1.0000 0.54510  0.74210  0.49960  Biso   1.000  O
  O121     1.0000 0.58720  0.62260  0.50040  Biso   1.000  O
  O122     1.0000 0.46100  0.83130  0.49880  Biso   1.000  O
  O123     1.0000 0.46070  0.62960  0.49920  Biso   1.000  O
  O124     1.0000 0.61960  0.94870  0.49670  Biso   1.000  O
  O125     1.0000 0.67560  0.99990  0.64490  Biso   1.000  O
  O126     1.0000 0.62000  0.67110  0.50130  Biso   1.000  O
  O127     1.0000 0.39870  0.79650  0.35220  Biso   1.000  O
  O128     1.0000 0.39870  0.79680  0.64440  Biso   1.000  O
  O129     1.0000 0.77620  0.94010  0.99660  Biso   1.000  O
  O130     1.0000 0.77630  0.83610  0.99420  Biso   1.000  O
  O131     1.0000 0.73210  0.96070  0.10800  Biso   1.000  O
  O132     1.0000 0.73260  0.96130  0.89300  Biso   1.000  O
  O133     1.0000 0.77260  0.04070  0.89200  Biso   1.000  O
  O134     1.0000 0.77180  0.04000  0.10400  Biso   1.000  O
  O135     1.0000 0.79160  0.97170  0.27100  Biso   1.000  O
  O136     1.0000 0.78920  0.98160  0.12000  Biso   1.000  O
  O137     1.0000 0.79210  0.97130  0.73400  Biso   1.000  O
  O138     1.0000 0.78890  0.98190  0.88100  Biso   1.000  O
  O139     1.0000 0.79110  0.81990  0.73000  Biso   1.000  O
  O140     1.0000 0.80680  0.01830  0.12100  Biso   1.000  O
  O141     1.0000 0.79130  0.81990  0.27000  Biso   1.000  O
  O142     1.0000 0.80740  0.01800  0.87900  Biso   1.000  O
  O143     1.0000 0.71680  0.88970  0.89900  Biso   1.000  O
  O144     1.0000 0.76650  0.89900  0.87900  Biso   1.000  O
  O145     1.0000 0.71650  0.82420  0.89500  Biso   1.000  O
  O146     1.0000 0.77520  0.86280  0.26800  Biso   1.000  O
  O147     1.0000 0.76640  0.86760  0.12200  Biso   1.000  O
  O148     1.0000 0.71690  0.88830  0.10100  Biso   1.000  O
  O149     1.0000 0.77360  0.91160  0.27100  Biso   1.000  O
  O150     1.0000 0.76610  0.89870  0.12100  Biso   1.000  O
  O151     1.0000 0.71600  0.82630  0.09800  Biso   1.000  O
  O152     1.0000 0.77400  0.86240  0.72800  Biso   1.000  O
  O153     1.0000 0.76690  0.86750  0.88100  Biso   1.000  O
  C111     1.0000 0.40920  0.81820  0.25750  Biso   1.000  C
  C112     1.0000 0.40080  0.80140  0.12530  Biso   1.000  C
  C113     1.0000 0.38410  0.76780  0.11140  Biso   1.000  C
  C114     1.0000 0.37370  0.74700  0.99640  Biso   1.000  C
  C115     1.0000 0.38420  0.76840  0.88360  Biso   1.000  C
  C116     1.0000 0.40100  0.80210  0.87260  Biso   1.000  C
  C117     1.0000 0.40930  0.81870  0.99980  Biso   1.000  C
  C118     1.0000 0.35690  0.71330  0.00830  Biso   1.000  C
  C119     1.0000 0.40810  0.81680  0.73900  Biso   1.000  C
  C120     1.0000 0.51320  0.86920  0.49990  Biso   1.000  C
  C121     1.0000 0.56690  0.65830  0.50110  Biso   1.000  C
  C122     1.0000 0.55440  0.85770  0.50270  Biso   1.000  C
  C123     1.0000 0.60640  0.80320  0.25530  Biso   1.000  C
  C124     1.0000 0.60730  0.80360  0.74700  Biso   1.000  C
  C125     1.0000 0.65930  0.00030  0.25210  Biso   1.000  C
  C126     1.0000 0.55420  0.69750  0.50380  Biso   1.000  C
  C127     1.0000 0.56720  0.90880  0.50220  Biso   1.000  C
  C128     1.0000 0.53520  0.63420  0.50080  Biso   1.000  C
  C129     1.0000 0.51360  0.64440  0.49950  Biso   1.000  C
  C130     1.0000 0.53580  0.90170  0.50010  Biso   1.000  C
  C131     1.0000 0.59400  0.64990  0.49540  Biso   1.000  C
  C132     1.0000 0.59380  0.94400  0.49560  Biso   1.000  C
  C133     1.0000 0.52190  0.67660  0.49970  Biso   1.000  C
  C134     1.0000 0.52130  0.84460  0.49830  Biso   1.000  C
  C135     1.0000 0.47970  0.85970  0.50120  Biso   1.000  C
  C136     1.0000 0.56500  0.83250  0.49790  Biso   1.000  C
  C137     1.0000 0.48000  0.62040  0.50080  Biso   1.000  C
  C138     1.0000 0.56450  0.73350  0.49940  Biso   1.000  C
  C139     1.0000 0.57660  0.69040  0.50250  Biso   1.000  C
  C140     1.0000 0.57750  0.88740  0.50200  Biso   1.000  C
  C141     1.0000 0.65920  0.99980  0.74540  Biso   1.000  C
  C142     1.0000 0.65730  0.00030  0.00020  Biso   1.000  C
  C143     1.0000 0.60580  0.80290  0.00020  Biso   1.000  C
  C144     1.0000 0.62230  0.81110  0.87000  Biso   1.000  C
  C145     1.0000 0.62240  0.81030  0.12700  Biso   1.000  C
  C146     1.0000 0.67800  0.01270  0.12100  Biso   1.000  C
  C147     1.0000 0.66910  0.99130  0.12100  Biso   1.000  C
  C148     1.0000 0.70700  0.01490  0.12900  Biso   1.000  C
  C149     1.0000 0.69180  0.98200  0.13200  Biso   1.000  C
  C150     1.0000 0.67860  0.01040  0.87700  Biso   1.000  C
  C151     1.0000 0.66520  0.98790  0.87900  Biso   1.000  C
  C152     1.0000 0.68970  0.98140  0.87400  Biso   1.000  C
  C153     1.0000 0.70950  0.01740  0.86700  Biso   1.000  C
  C154     1.0000 0.65270  0.84120  0.12000  Biso   1.000  C
  C155     1.0000 0.65420  0.81270  0.12600  Biso   1.000  C
  C156     1.0000 0.65540  0.84210  0.87700  Biso   1.000  C
  C157     1.0000 0.65370  0.81220  0.87600  Biso   1.000  C
  C158     1.0000 0.76020  0.03750  0.99200  Biso   1.000  C
  C159     1.0000 0.72370  0.96330  0.01100  Biso   1.000  C
  C160     1.0000 0.72720  0.02740  0.00100  Biso   1.000  C
  C161     1.0000 0.69960  0.97310  0.00500  Biso   1.000  C
  C162     1.0000 0.70660  0.83210  0.99600  Biso   1.000  C
  C163     1.0000 0.70560  0.87560  0.99900  Biso   1.000  C
  C164     1.0000 0.66970  0.85430  0.00300  Biso   1.000  C
  C165     1.0000 0.67060  0.81620  0.00000  Biso   1.000  C
  In10     1.0000 0.79239  0.20762  0.49980  Biso   1.000  In
  In11     1.0000 0.00000  0.36006  0.50004  Biso   1.000  In
  In12     1.0000 0.84034  0.42017  0.50012  Biso   1.000  In
  Co13     1.0000 0.93431  0.17976  0.83460  Biso   1.000  Co
  Co14     1.0000 0.93416  0.17958  0.16540  Biso   1.000  Co
  Co15     1.0000 0.82039  0.06566  0.83430  Biso   1.000  Co
  Co16     1.0000 0.82027  0.06571  0.16590  Biso   1.000  Co
  O154     1.0000 0.00040  0.36560  0.73360  Biso   1.000  O
  O155     1.0000 0.81290  0.18730  0.35650  Biso   1.000  O
  O156     1.0000 0.70986  0.35540  0.11430  Biso   1.000  O
  O157     1.0000 0.71114  0.35470  0.86850  Biso   1.000  O
  O158     1.0000 0.99950  0.32490  0.64420  Biso   1.000  O
  O159     1.0000 0.78860  0.21130  0.26230  Biso   1.000  O
  O160     1.0000 0.78820  0.21160  0.73630  Biso   1.000  O
  O161     1.0000 0.99980  0.36540  0.26650  Biso   1.000  O
  O162     1.0000 0.84670  0.42350  0.26100  Biso   1.000  O
  O163     1.0000 0.81300  0.18740  0.64630  Biso   1.000  O
  O164     1.0000 0.88020  0.40810  0.50050  Biso   1.000  O
  O165     1.0000 0.59190  0.12030  0.50090  Biso   1.000  O
  O166     1.0000 0.84670  0.42350  0.73560  Biso   1.000  O
  O167     1.0000 0.80340  0.25770  0.49990  Biso   1.000  O
  O168     1.0000 0.75260  0.15970  0.50050  Biso   1.000  O
  O169     1.0000 0.84030  0.24690  0.50010  Biso   1.000  O
  O170     1.0000 0.96440  0.37750  0.50080  Biso   1.000  O
  O171     1.0000 0.74210  0.19700  0.50040  Biso   1.000  O
  O172     1.0000 0.62260  0.03540  0.49960  Biso   1.000  O
  O173     1.0000 0.83130  0.37030  0.50120  Biso   1.000  O
  O174     1.0000 0.62960  0.16890  0.50080  Biso   1.000  O
  O175     1.0000 0.94870  0.32910  0.50330  Biso   1.000  O
  O176     1.0000 0.99990  0.32430  0.35510  Biso   1.000  O
  O177     1.0000 0.67110  0.05110  0.49870  Biso   1.000  O
  O178     1.0000 0.79650  0.39780  0.64780  Biso   1.000  O
  O179     1.0000 0.79680  0.39810  0.35560  Biso   1.000  O
  O180     1.0000 0.94010  0.16390  0.00340  Biso   1.000  O
  O181     1.0000 0.83610  0.05980  0.00580  Biso   1.000  O
  O182     1.0000 0.96070  0.22860  0.89200  Biso   1.000  O
  O183     1.0000 0.96130  0.22870  0.10700  Biso   1.000  O
  O184     1.0000 0.04070  0.26810  0.10800  Biso   1.000  O
  O185     1.0000 0.04000  0.26820  0.89600  Biso   1.000  O
  O186     1.0000 0.97170  0.18010  0.72900  Biso   1.000  O
  O187     1.0000 0.98160  0.19240  0.88000  Biso   1.000  O
  O188     1.0000 0.97130  0.17920  0.26600  Biso   1.000  O
  O189     1.0000 0.98190  0.19300  0.11900  Biso   1.000  O
  O190     1.0000 0.81990  0.02880  0.27000  Biso   1.000  O
  O191     1.0000 0.01830  0.21150  0.87900  Biso   1.000  O
  O192     1.0000 0.81990  0.02860  0.73000  Biso   1.000  O
  O193     1.0000 0.01800  0.21060  0.12100  Biso   1.000  O
  O194     1.0000 0.88970  0.17290  0.10100  Biso   1.000  O
  O195     1.0000 0.89900  0.13250  0.12100  Biso   1.000  O
  O196     1.0000 0.82420  0.10770  0.10500  Biso   1.000  O
  O197     1.0000 0.86280  0.08760  0.73200  Biso   1.000  O
  O198     1.0000 0.86760  0.10120  0.87800  Biso   1.000  O
  O199     1.0000 0.88830  0.17140  0.89900  Biso   1.000  O
  O200     1.0000 0.91160  0.13800  0.72900  Biso   1.000  O
  O201     1.0000 0.89870  0.13260  0.87900  Biso   1.000  O
  O202     1.0000 0.82630  0.11030  0.90200  Biso   1.000  O
  O203     1.0000 0.86240  0.08840  0.27200  Biso   1.000  O
  O204     1.0000 0.86750  0.10060  0.11900  Biso   1.000  O
  C166     1.0000 0.81820  0.40900  0.74250  Biso   1.000  C
  C167     1.0000 0.80140  0.40060  0.87470  Biso   1.000  C
  C168     1.0000 0.76780  0.38370  0.88860  Biso   1.000  C
  C169     1.0000 0.74700  0.37330  0.00360  Biso   1.000  C
  C170     1.0000 0.76840  0.38420  0.11640  Biso   1.000  C
  C171     1.0000 0.80210  0.40110  0.12740  Biso   1.000  C
  C172     1.0000 0.81870  0.40940  0.00020  Biso   1.000  C
  C173     1.0000 0.71330  0.35640  0.99170  Biso   1.000  C
  C174     1.0000 0.81680  0.40870  0.26100  Biso   1.000  C
  C175     1.0000 0.86920  0.35600  0.50010  Biso   1.000  C
  C176     1.0000 0.65830  0.09140  0.49890  Biso   1.000  C
  C177     1.0000 0.85770  0.30330  0.49730  Biso   1.000  C
  C178     1.0000 0.80320  0.19680  0.74470  Biso   1.000  C
  C179     1.0000 0.80360  0.19630  0.25300  Biso   1.000  C
  C180     1.0000 0.00030  0.34100  0.74790  Biso   1.000  C
  C181     1.0000 0.69750  0.14330  0.49620  Biso   1.000  C
  C182     1.0000 0.90880  0.34160  0.49780  Biso   1.000  C
  C183     1.0000 0.63420  0.09900  0.49920  Biso   1.000  C
  C184     1.0000 0.64440  0.13080  0.50050  Biso   1.000  C
  C185     1.0000 0.90170  0.36590  0.49990  Biso   1.000  C
  C186     1.0000 0.64990  0.05590  0.50460  Biso   1.000  C
  C187     1.0000 0.94400  0.35020  0.50440  Biso   1.000  C
  C188     1.0000 0.67660  0.15470  0.50030  Biso   1.000  C
  C189     1.0000 0.84460  0.32330  0.50170  Biso   1.000  C
  C190     1.0000 0.85970  0.38000  0.49880  Biso   1.000  C
  C191     1.0000 0.83250  0.26750  0.50210  Biso   1.000  C
  C192     1.0000 0.62040  0.14040  0.49920  Biso   1.000  C
  C193     1.0000 0.73350  0.16900  0.50060  Biso   1.000  C
  C194     1.0000 0.69040  0.11380  0.49750  Biso   1.000  C
  C195     1.0000 0.88740  0.30990  0.49800  Biso   1.000  C
  C196     1.0000 0.99980  0.34060  0.25460  Biso   1.000  C
  C197     1.0000 0.00030  0.34300  0.99980  Biso   1.000  C
  C198     1.0000 0.80290  0.19710  0.99980  Biso   1.000  C
  C199     1.0000 0.81110  0.18880  0.13000  Biso   1.000  C
  C200     1.0000 0.81030  0.18790  0.87300  Biso   1.000  C
  C201     1.0000 0.01270  0.33470  0.87900  Biso   1.000  C
  C202     1.0000 0.99130  0.32220  0.87900  Biso   1.000  C
  C203     1.0000 0.01490  0.30790  0.87100  Biso   1.000  C
  C204     1.0000 0.98200  0.29020  0.86800  Biso   1.000  C
  C205     1.0000 0.01040  0.33180  0.12300  Biso   1.000  C
  C206     1.0000 0.98790  0.32270  0.12100  Biso   1.000  C
  C207     1.0000 0.98140  0.29170  0.12600  Biso   1.000  C
  C208     1.0000 0.01740  0.30790  0.13300  Biso   1.000  C
  C209     1.0000 0.84120  0.18850  0.88000  Biso   1.000  C
  C210     1.0000 0.81270  0.15850  0.87400  Biso   1.000  C
  C211     1.0000 0.84210  0.18670  0.12300  Biso   1.000  C
  C212     1.0000 0.81220  0.15850  0.12400  Biso   1.000  C
  C213     1.0000 0.03750  0.27730  0.00800  Biso   1.000  C
  C214     1.0000 0.96330  0.23960  0.98900  Biso   1.000  C
  C215     1.0000 0.02740  0.30020  0.99900  Biso   1.000  C
  C216     1.0000 0.97310  0.27350  0.99500  Biso   1.000  C
  C217     1.0000 0.83210  0.12550  0.00400  Biso   1.000  C
  C218     1.0000 0.87560  0.17000  0.00100  Biso   1.000  C
  C219     1.0000 0.85430  0.18460  0.99700  Biso   1.000  C
  C220     1.0000 0.81620  0.14560  0.00000  Biso   1.000  C
  In13     1.0000 0.79238  0.58477  0.49980  Biso   1.000  In
  In14     1.0000 0.63994  0.63994  0.50004  Biso   1.000  In
  In15     1.0000 0.57983  0.42017  0.50012  Biso   1.000  In
  Co17     1.0000 0.82024  0.75455  0.83460  Biso   1.000  Co
  Co18     1.0000 0.82042  0.75458  0.16540  Biso   1.000  Co
  Co19     1.0000 0.93434  0.75473  0.83430  Biso   1.000  Co
  Co20     1.0000 0.93429  0.75456  0.16590  Biso   1.000  Co
  O205     1.0000 0.63440  0.63480  0.73360  Biso   1.000  O
  O206     1.0000 0.81270  0.62560  0.35650  Biso   1.000  O
  O207     1.0000 0.64460  0.35446  0.11430  Biso   1.000  O
  O208     1.0000 0.64530  0.35644  0.86850  Biso   1.000  O
  O209     1.0000 0.67510  0.67460  0.64420  Biso   1.000  O
  O210     1.0000 0.78870  0.57730  0.26230  Biso   1.000  O
  O211     1.0000 0.78840  0.57660  0.73630  Biso   1.000  O
  O212     1.0000 0.63460  0.63440  0.26650  Biso   1.000  O
  O213     1.0000 0.57650  0.42320  0.26100  Biso   1.000  O
  O214     1.0000 0.81260  0.62560  0.64630  Biso   1.000  O
  O215     1.0000 0.59190  0.47210  0.50050  Biso   1.000  O
  O216     1.0000 0.87970  0.47160  0.50090  Biso   1.000  O
  O217     1.0000 0.57650  0.42320  0.73560  Biso   1.000  O
  O218     1.0000 0.74230  0.54570  0.49990  Biso   1.000  O
  O219     1.0000 0.84030  0.59290  0.50050  Biso   1.000  O
  O220     1.0000 0.75310  0.59340  0.50010  Biso   1.000  O
  O221     1.0000 0.62250  0.58690  0.50080  Biso   1.000  O
  O222     1.0000 0.80300  0.54510  0.50040  Biso   1.000  O
  O223     1.0000 0.96460  0.58720  0.49960  Biso   1.000  O
  O224     1.0000 0.62970  0.46100  0.50120  Biso   1.000  O
  O225     1.0000 0.83110  0.46070  0.50080  Biso   1.000  O
  O226     1.0000 0.67090  0.61960  0.50330  Biso   1.000  O
  O227     1.0000 0.67570  0.67560  0.35510  Biso   1.000  O
  O228     1.0000 0.94890  0.62000  0.49870  Biso   1.000  O
  O229     1.0000 0.60220  0.39870  0.64780  Biso   1.000  O
  O230     1.0000 0.60190  0.39870  0.35560  Biso   1.000  O
  O231     1.0000 0.83610  0.77620  0.00340  Biso   1.000  O
  O232     1.0000 0.94020  0.77630  0.00580  Biso   1.000  O
  O233     1.0000 0.77140  0.73210  0.89200  Biso   1.000  O
  O234     1.0000 0.77130  0.73260  0.10700  Biso   1.000  O
  O235     1.0000 0.73190  0.77260  0.10800  Biso   1.000  O
  O236     1.0000 0.73180  0.77180  0.89600  Biso   1.000  O
  O237     1.0000 0.81990  0.79160  0.72900  Biso   1.000  O
  O238     1.0000 0.80760  0.78920  0.88000  Biso   1.000  O
  O239     1.0000 0.82080  0.79210  0.26600  Biso   1.000  O
  O240     1.0000 0.80700  0.78890  0.11900  Biso   1.000  O
  O241     1.0000 0.97120  0.79110  0.27000  Biso   1.000  O
  O242     1.0000 0.78850  0.80680  0.87900  Biso   1.000  O
  O243     1.0000 0.97140  0.79130  0.73000  Biso   1.000  O
  O244     1.0000 0.78940  0.80740  0.12100  Biso   1.000  O
  O245     1.0000 0.82710  0.71680  0.10100  Biso   1.000  O
  O246     1.0000 0.86750  0.76650  0.12100  Biso   1.000  O
  O247     1.0000 0.89230  0.71650  0.10500  Biso   1.000  O
  O248     1.0000 0.91240  0.77520  0.73200  Biso   1.000  O
  O249     1.0000 0.89880  0.76640  0.87800  Biso   1.000  O
  O250     1.0000 0.82860  0.71690  0.89900  Biso   1.000  O
  O251     1.0000 0.86200  0.77360  0.72900  Biso   1.000  O
  O252     1.0000 0.86740  0.76610  0.87900  Biso   1.000  O
  O253     1.0000 0.88970  0.71600  0.90200  Biso   1.000  O
  O254     1.0000 0.91160  0.77400  0.27200  Biso   1.000  O
  O255     1.0000 0.89940  0.76690  0.11900  Biso   1.000  O
  C221     1.0000 0.59100  0.40920  0.74250  Biso   1.000  C
  C222     1.0000 0.59940  0.40080  0.87470  Biso   1.000  C
  C223     1.0000 0.61630  0.38410  0.88860  Biso   1.000  C
  C224     1.0000 0.62670  0.37370  0.00360  Biso   1.000  C
  C225     1.0000 0.61580  0.38420  0.11640  Biso   1.000  C
  C226     1.0000 0.59890  0.40100  0.12740  Biso   1.000  C
  C227     1.0000 0.59060  0.40930  0.00020  Biso   1.000  C
  C228     1.0000 0.64360  0.35690  0.99170  Biso   1.000  C
  C229     1.0000 0.59130  0.40810  0.26100  Biso   1.000  C
  C230     1.0000 0.64400  0.51320  0.50010  Biso   1.000  C
  C231     1.0000 0.90860  0.56690  0.49890  Biso   1.000  C
  C232     1.0000 0.69670  0.55440  0.49730  Biso   1.000  C
  C233     1.0000 0.80320  0.60640  0.74470  Biso   1.000  C
  C234     1.0000 0.80370  0.60730  0.25300  Biso   1.000  C
  C235     1.0000 0.65900  0.65930  0.74790  Biso   1.000  C
  C236     1.0000 0.85670  0.55420  0.49620  Biso   1.000  C
  C237     1.0000 0.65840  0.56720  0.49780  Biso   1.000  C
  C238     1.0000 0.90100  0.53520  0.49920  Biso   1.000  C
  C239     1.0000 0.86920  0.51360  0.50050  Biso   1.000  C
  C240     1.0000 0.63410  0.53580  0.49990  Biso   1.000  C
  C241     1.0000 0.94410  0.59400  0.50460  Biso   1.000  C
  C242     1.0000 0.64980  0.59380  0.50440  Biso   1.000  C
  C243     1.0000 0.84530  0.52190  0.50030  Biso   1.000  C
  C244     1.0000 0.67670  0.52130  0.50170  Biso   1.000  C
  C245     1.0000 0.62000  0.47970  0.49880  Biso   1.000  C
  C246     1.0000 0.73250  0.56500  0.50210  Biso   1.000  C
  C247     1.0000 0.85960  0.48000  0.49920  Biso   1.000  C
  C248     1.0000 0.83100  0.56450  0.50060  Biso   1.000  C
  C249     1.0000 0.88620  0.57660  0.49750  Biso   1.000  C
  C250     1.0000 0.69010  0.57750  0.49800  Biso   1.000  C
  C251     1.0000 0.65940  0.65920  0.25460  Biso   1.000  C
  C252     1.0000 0.65700  0.65730  0.99980  Biso   1.000  C
  C253     1.0000 0.80290  0.60580  0.99980  Biso   1.000  C
  C254     1.0000 0.81120  0.62230  0.13000  Biso   1.000  C
  C255     1.0000 0.81210  0.62240  0.87300  Biso   1.000  C
  C256     1.0000 0.66530  0.67800  0.87900  Biso   1.000  C
  C257     1.0000 0.67780  0.66910  0.87900  Biso   1.000  C
  C258     1.0000 0.69210  0.70700  0.87100  Biso   1.000  C
  C259     1.0000 0.70980  0.69180  0.86800  Biso   1.000  C
  C260     1.0000 0.66820  0.67860  0.12300  Biso   1.000  C
  C261     1.0000 0.67730  0.66520  0.12100  Biso   1.000  C
  C262     1.0000 0.70830  0.68970  0.12600  Biso   1.000  C
  C263     1.0000 0.69210  0.70950  0.13300  Biso   1.000  C
  C264     1.0000 0.81150  0.65270  0.88000  Biso   1.000  C
  C265     1.0000 0.84150  0.65420  0.87400  Biso   1.000  C
  C266     1.0000 0.81330  0.65540  0.12300  Biso   1.000  C
  C267     1.0000 0.84150  0.65370  0.12400  Biso   1.000  C
  C268     1.0000 0.72270  0.76020  0.00800  Biso   1.000  C
  C269     1.0000 0.76040  0.72370  0.98900  Biso   1.000  C
  C270     1.0000 0.69980  0.72720  0.99900  Biso   1.000  C
  C271     1.0000 0.72650  0.69960  0.99500  Biso   1.000  C
  C272     1.0000 0.87450  0.70660  0.00400  Biso   1.000  C
  C273     1.0000 0.83000  0.70560  0.00100  Biso   1.000  C
  C274     1.0000 0.81540  0.66970  0.99700  Biso   1.000  C
  C275     1.0000 0.85440  0.67060  0.00000  Biso   1.000  C
  In16     1.0000 0.41523  0.20761  0.49980  Biso   1.000  In
  In17     1.0000 0.36006  0.00000  0.50004  Biso   1.000  In
  In18     1.0000 0.57983  0.15966  0.50012  Biso   1.000  In
  Co21     1.0000 0.24545  0.06569  0.83460  Biso   1.000  Co
  Co22     1.0000 0.24542  0.06584  0.16540  Biso   1.000  Co
  Co23     1.0000 0.24527  0.17961  0.83430  Biso   1.000  Co
  Co24     1.0000 0.24544  0.17973  0.16590  Biso   1.000  Co
  O256     1.0000 0.36520  0.99960  0.73360  Biso   1.000  O
  O257     1.0000 0.37440  0.18710  0.35650  Biso   1.000  O
  O258     1.0000 0.64554  0.29014  0.11430  Biso   1.000  O
  O259     1.0000 0.64356  0.28886  0.86850  Biso   1.000  O
  O260     1.0000 0.32540  0.00050  0.64420  Biso   1.000  O
  O261     1.0000 0.42270  0.21140  0.26230  Biso   1.000  O
  O262     1.0000 0.42340  0.21180  0.73630  Biso   1.000  O
  O263     1.0000 0.36560  0.00020  0.26650  Biso   1.000  O
  O264     1.0000 0.57680  0.15330  0.26100  Biso   1.000  O
  O265     1.0000 0.37440  0.18700  0.64630  Biso   1.000  O
  O266     1.0000 0.52790  0.11980  0.50050  Biso   1.000  O
  O267     1.0000 0.52840  0.40810  0.50090  Biso   1.000  O
  O268     1.0000 0.57680  0.15330  0.73560  Biso   1.000  O
  O269     1.0000 0.45430  0.19660  0.49990  Biso   1.000  O
  O270     1.0000 0.40710  0.24740  0.50050  Biso   1.000  O
  O271     1.0000 0.40660  0.15970  0.50010  Biso   1.000  O
  O272     1.0000 0.41310  0.03560  0.50080  Biso   1.000  O
  O273     1.0000 0.45490  0.25790  0.50040  Biso   1.000  O
  O274     1.0000 0.41280  0.37740  0.49960  Biso   1.000  O
  O275     1.0000 0.53900  0.16870  0.50120  Biso   1.000  O
  O276     1.0000 0.53930  0.37040  0.50080  Biso   1.000  O
  O277     1.0000 0.38040  0.05130  0.50330  Biso   1.000  O
  O278     1.0000 0.32440  0.00010  0.35510  Biso   1.000  O
  O279     1.0000 0.38000  0.32890  0.49870  Biso   1.000  O
  O280     1.0000 0.60130  0.20350  0.64780  Biso   1.000  O
  O281     1.0000 0.60130  0.20320  0.35560  Biso   1.000  O
  O282     1.0000 0.22380  0.05990  0.00340  Biso   1.000  O
  O283     1.0000 0.22370  0.16390  0.00580  Biso   1.000  O
  O284     1.0000 0.26790  0.03930  0.89200  Biso   1.000  O
  O285     1.0000 0.26740  0.03870  0.10700  Biso   1.000  O
  O286     1.0000 0.22740  0.95930  0.10800  Biso   1.000  O
  O287     1.0000 0.22820  0.96000  0.89600  Biso   1.000  O
  O288     1.0000 0.20840  0.02830  0.72900  Biso   1.000  O
  O289     1.0000 0.21080  0.01840  0.88000  Biso   1.000  O
  O290     1.0000 0.20790  0.02870  0.26600  Biso   1.000  O
  O291     1.0000 0.21110  0.01810  0.11900  Biso   1.000  O
  O292     1.0000 0.20890  0.18010  0.27000  Biso   1.000  O
  O293     1.0000 0.19320  0.98170  0.87900  Biso   1.000  O
  O294     1.0000 0.20870  0.18010  0.73000  Biso   1.000  O
  O295     1.0000 0.19260  0.98200  0.12100  Biso   1.000  O
  O296     1.0000 0.28320  0.11030  0.10100  Biso   1.000  O
  O297     1.0000 0.23350  0.10100  0.12100  Biso   1.000  O
  O298     1.0000 0.28350  0.17580  0.10500  Biso   1.000  O
  O299     1.0000 0.22480  0.13720  0.73200  Biso   1.000  O
  O300     1.0000 0.23360  0.13240  0.87800  Biso   1.000  O
  O301     1.0000 0.28310  0.11170  0.89900  Biso   1.000  O
  O302     1.0000 0.22640  0.08840  0.72900  Biso   1.000  O
  O303     1.0000 0.23390  0.10130  0.87900  Biso   1.000  O
  O304     1.0000 0.28400  0.17370  0.90200  Biso   1.000  O
  O305     1.0000 0.22600  0.13760  0.27200  Biso   1.000  O
  O306     1.0000 0.23310  0.13250  0.11900  Biso   1.000  O
  C276     1.0000 0.59080  0.18180  0.74250  Biso   1.000  C
  C277     1.0000 0.59920  0.19860  0.87470  Biso   1.000  C
  C278     1.0000 0.61590  0.23220  0.88860  Biso   1.000  C
  C279     1.0000 0.62630  0.25300  0.00360  Biso   1.000  C
  C280     1.0000 0.61580  0.23160  0.11640  Biso   1.000  C
  C281     1.0000 0.59900  0.19790  0.12740  Biso   1.000  C
  C282     1.0000 0.59070  0.18130  0.00020  Biso   1.000  C
  C283     1.0000 0.64310  0.28670  0.99170  Biso   1.000  C
  C284     1.0000 0.59190  0.18320  0.26100  Biso   1.000  C
  C285     1.0000 0.48680  0.13080  0.50010  Biso   1.000  C
  C286     1.0000 0.43310  0.34170  0.49890  Biso   1.000  C
  C287     1.0000 0.44560  0.14230  0.49730  Biso   1.000  C
  C288     1.0000 0.39360  0.19680  0.74470  Biso   1.000  C
  C289     1.0000 0.39270  0.19640  0.25300  Biso   1.000  C
  C290     1.0000 0.34070  0.99970  0.74790  Biso   1.000  C
  C291     1.0000 0.44580  0.30250  0.49620  Biso   1.000  C
  C292     1.0000 0.43280  0.09120  0.49780  Biso   1.000  C
  C293     1.0000 0.46480  0.36580  0.49920  Biso   1.000  C
  C294     1.0000 0.48640  0.35560  0.50050  Biso   1.000  C
  C295     1.0000 0.46420  0.09830  0.49990  Biso   1.000  C
  C296     1.0000 0.40600  0.35010  0.50460  Biso   1.000  C
  C297     1.0000 0.40620  0.05600  0.50440  Biso   1.000  C
  C298     1.0000 0.47810  0.32340  0.50030  Biso   1.000  C
  C299     1.0000 0.47870  0.15540  0.50170  Biso   1.000  C
  C300     1.0000 0.52030  0.14030  0.49880  Biso   1.000  C
  C301     1.0000 0.43500  0.16750  0.50210  Biso   1.000  C
  C302     1.0000 0.52000  0.37960  0.49920  Biso   1.000  C
  C303     1.0000 0.43550  0.26650  0.50060  Biso   1.000  C
  C304     1.0000 0.42340  0.30960  0.49750  Biso   1.000  C
  C305     1.0000 0.42250  0.11260  0.49800  Biso   1.000  C
  C306     1.0000 0.34080  0.00020  0.25460  Biso   1.000  C
  C307     1.0000 0.34270  0.99970  0.99980  Biso   1.000  C
  C308     1.0000 0.39420  0.19710  0.99980  Biso   1.000  C
  C309     1.0000 0.37770  0.18890  0.13000  Biso   1.000  C
  C310     1.0000 0.37760  0.18970  0.87300  Biso   1.000  C
  C311     1.0000 0.32200  0.98730  0.87900  Biso   1.000  C
  C312     1.0000 0.33090  0.00870  0.87900  Biso   1.000  C
  C313     1.0000 0.29300  0.98510  0.87100  Biso   1.000  C
  C314     1.0000 0.30820  0.01800  0.86800  Biso   1.000  C
  C315     1.0000 0.32140  0.98960  0.12300  Biso   1.000  C
  C316     1.0000 0.33480  0.01210  0.12100  Biso   1.000  C
  C317     1.0000 0.31030  0.01860  0.12600  Biso   1.000  C
  C318     1.0000 0.29050  0.98260  0.13300  Biso   1.000  C
  C319     1.0000 0.34730  0.15880  0.88000  Biso   1.000  C
  C320     1.0000 0.34580  0.18730  0.87400  Biso   1.000  C
  C321     1.0000 0.34460  0.15790  0.12300  Biso   1.000  C
  C322     1.0000 0.34630  0.18780  0.12400  Biso   1.000  C
  C323     1.0000 0.23980  0.96250  0.00800  Biso   1.000  C
  C324     1.0000 0.27630  0.03670  0.98900  Biso   1.000  C
  C325     1.0000 0.27280  0.97260  0.99900  Biso   1.000  C
  C326     1.0000 0.30040  0.02690  0.99500  Biso   1.000  C
  C327     1.0000 0.29340  0.16790  0.00400  Biso   1.000  C
  C328     1.0000 0.29440  0.12440  0.00100  Biso   1.000  C
  C329     1.0000 0.33030  0.14570  0.99700  Biso   1.000  C
  C330     1.0000 0.32940  0.18380  0.00000  Biso   1.000  C
  Co25     1.0000 0.33333  0.66667  0.19020  Biso   1.000  Co
  Co26     1.0000 0.33333  0.66667  0.81120  Biso   1.000  Co
  Co27     1.0000 0.66667  0.33333  0.80980  Biso   1.000  Co
  Co28     1.0000 0.66667  0.33333  0.18880  Biso   1.000  Co
