data_image0
_cell_length_a       30.7158
_cell_length_b       30.7158
_cell_length_c       30.7158
_cell_angle_alpha    90
_cell_angle_beta     90
_cell_angle_gamma    90

_symmetry_space_group_name_H-M    "P 1"
_symmetry_int_tables_number       1

loop_
  _symmetry_equiv_pos_as_xyz
  'x, y, z'

loop_
  _atom_site_label
  _atom_site_occupancy
  _atom_site_fract_x
  _atom_site_fract_y
  _atom_site_fract_z
  _atom_site_thermal_displace_type
  _atom_site_B_iso_or_equiv
  _atom_site_type_symbol
  O1       1.0000 0.59374  0.56022  0.27396  Biso   1.000  O
  O2       1.0000 0.56512  0.53216  0.21466  Biso   1.000  O
  O3       1.0000 0.40090  0.65340  0.18320  Biso   1.000  O
  C1       1.0000 0.56480  0.56020  0.24410  Biso   1.000  C
  C2       1.0000 0.53010  0.59340  0.24490  Biso   1.000  C
  C3       1.0000 0.49860  0.59380  0.21370  Biso   1.000  C
  O4       1.0000 0.09374  0.06022  0.77396  Biso   1.000  O
  O5       1.0000 0.06512  0.03216  0.71466  Biso   1.000  O
  O6       1.0000 0.90090  0.15340  0.68320  Biso   1.000  O
  C4       1.0000 0.06480  0.06020  0.74410  Biso   1.000  C
  C5       1.0000 0.03010  0.09340  0.74490  Biso   1.000  C
  C6       1.0000 0.99860  0.09380  0.71370  Biso   1.000  C
  O7       1.0000 0.90626  0.43978  0.77396  Biso   1.000  O
  O8       1.0000 0.93488  0.46784  0.71466  Biso   1.000  O
  O9       1.0000 0.09910  0.34660  0.68320  Biso   1.000  O
  C7       1.0000 0.93520  0.43980  0.74410  Biso   1.000  C
  C8       1.0000 0.96990  0.40660  0.74490  Biso   1.000  C
  C9       1.0000 0.00140  0.40620  0.71370  Biso   1.000  C
  O10      1.0000 0.40626  0.93978  0.27396  Biso   1.000  O
  O11      1.0000 0.43488  0.96784  0.21466  Biso   1.000  O
  O12      1.0000 0.59910  0.84660  0.18320  Biso   1.000  O
  C10      1.0000 0.43520  0.93980  0.24410  Biso   1.000  C
  C11      1.0000 0.46990  0.90660  0.24490  Biso   1.000  C
  C12      1.0000 0.50140  0.90620  0.21370  Biso   1.000  C
  O13      1.0000 0.40626  0.06022  0.22604  Biso   1.000  O
  O14      1.0000 0.43488  0.03216  0.28534  Biso   1.000  O
  O15      1.0000 0.59910  0.15340  0.31680  Biso   1.000  O
  C13      1.0000 0.43520  0.06020  0.25590  Biso   1.000  C
  C14      1.0000 0.46990  0.09340  0.25510  Biso   1.000  C
  C15      1.0000 0.50140  0.09380  0.28630  Biso   1.000  C
  O16      1.0000 0.90626  0.56022  0.72604  Biso   1.000  O
  O17      1.0000 0.93488  0.53216  0.78534  Biso   1.000  O
  O18      1.0000 0.09910  0.65340  0.81680  Biso   1.000  O
  C16      1.0000 0.93520  0.56020  0.75590  Biso   1.000  C
  C17      1.0000 0.96990  0.59340  0.75510  Biso   1.000  C
  C18      1.0000 0.00140  0.59380  0.78630  Biso   1.000  C
  O19      1.0000 0.09374  0.93978  0.72604  Biso   1.000  O
  O20      1.0000 0.06512  0.96784  0.78534  Biso   1.000  O
  O21      1.0000 0.90090  0.84660  0.81680  Biso   1.000  O
  C19      1.0000 0.06480  0.93980  0.75590  Biso   1.000  C
  C20      1.0000 0.03010  0.90660  0.75510  Biso   1.000  C
  C21      1.0000 0.99860  0.90620  0.78630  Biso   1.000  C
  O22      1.0000 0.59374  0.43978  0.22604  Biso   1.000  O
  O23      1.0000 0.56512  0.46784  0.28534  Biso   1.000  O
  O24      1.0000 0.40090  0.34660  0.31680  Biso   1.000  O
  C22      1.0000 0.56480  0.43980  0.25590  Biso   1.000  C
  C23      1.0000 0.53010  0.40660  0.25510  Biso   1.000  C
  C24      1.0000 0.49860  0.40620  0.28630  Biso   1.000  C
  O25      1.0000 0.27396  0.59374  0.56022  Biso   1.000  O
  O26      1.0000 0.21466  0.56512  0.53216  Biso   1.000  O
  O27      1.0000 0.18320  0.40090  0.65340  Biso   1.000  O
  C25      1.0000 0.24410  0.56480  0.56020  Biso   1.000  C
  C26      1.0000 0.24490  0.53010  0.59340  Biso   1.000  C
  C27      1.0000 0.21370  0.49860  0.59380  Biso   1.000  C
  O28      1.0000 0.77396  0.09374  0.06022  Biso   1.000  O
  O29      1.0000 0.71466  0.06512  0.03216  Biso   1.000  O
  O30      1.0000 0.68320  0.90090  0.15340  Biso   1.000  O
  C28      1.0000 0.74410  0.06480  0.06020  Biso   1.000  C
  C29      1.0000 0.74490  0.03010  0.09340  Biso   1.000  C
  C30      1.0000 0.71370  0.99860  0.09380  Biso   1.000  C
  O31      1.0000 0.77396  0.90626  0.43978  Biso   1.000  O
  O32      1.0000 0.71466  0.93488  0.46784  Biso   1.000  O
  O33      1.0000 0.68320  0.09910  0.34660  Biso   1.000  O
  C31      1.0000 0.74410  0.93520  0.43980  Biso   1.000  C
  C32      1.0000 0.74490  0.96990  0.40660  Biso   1.000  C
  C33      1.0000 0.71370  0.00140  0.40620  Biso   1.000  C
  O34      1.0000 0.27396  0.40626  0.93978  Biso   1.000  O
  O35      1.0000 0.21466  0.43488  0.96784  Biso   1.000  O
  O36      1.0000 0.18320  0.59910  0.84660  Biso   1.000  O
  C34      1.0000 0.24410  0.43520  0.93980  Biso   1.000  C
  C35      1.0000 0.24490  0.46990  0.90660  Biso   1.000  C
  C36      1.0000 0.21370  0.50140  0.90620  Biso   1.000  C
  O37      1.0000 0.22604  0.40626  0.06022  Biso   1.000  O
  O38      1.0000 0.28534  0.43488  0.03216  Biso   1.000  O
  O39      1.0000 0.31680  0.59910  0.15340  Biso   1.000  O
  C37      1.0000 0.25590  0.43520  0.06020  Biso   1.000  C
  C38      1.0000 0.25510  0.46990  0.09340  Biso   1.000  C
  C39      1.0000 0.28630  0.50140  0.09380  Biso   1.000  C
  O40      1.0000 0.72604  0.90626  0.56022  Biso   1.000  O
  O41      1.0000 0.78534  0.93488  0.53216  Biso   1.000  O
  O42      1.0000 0.81680  0.09910  0.65340  Biso   1.000  O
  C40      1.0000 0.75590  0.93520  0.56020  Biso   1.000  C
  C41      1.0000 0.75510  0.96990  0.59340  Biso   1.000  C
  C42      1.0000 0.78630  0.00140  0.59380  Biso   1.000  C
  O43      1.0000 0.72604  0.09374  0.93978  Biso   1.000  O
  O44      1.0000 0.78534  0.06512  0.96784  Biso   1.000  O
  O45      1.0000 0.81680  0.90090  0.84660  Biso   1.000  O
  C43      1.0000 0.75590  0.06480  0.93980  Biso   1.000  C
  C44      1.0000 0.75510  0.03010  0.90660  Biso   1.000  C
  C45      1.0000 0.78630  0.99860  0.90620  Biso   1.000  C
  O46      1.0000 0.22604  0.59374  0.43978  Biso   1.000  O
  O47      1.0000 0.28534  0.56512  0.46784  Biso   1.000  O
  O48      1.0000 0.31680  0.40090  0.34660  Biso   1.000  O
  C46      1.0000 0.25590  0.56480  0.43980  Biso   1.000  C
  C47      1.0000 0.25510  0.53010  0.40660  Biso   1.000  C
  C48      1.0000 0.28630  0.49860  0.40620  Biso   1.000  C
  O49      1.0000 0.56022  0.27396  0.59374  Biso   1.000  O
  O50      1.0000 0.53216  0.21466  0.56512  Biso   1.000  O
  O51      1.0000 0.65340  0.18320  0.40090  Biso   1.000  O
  C49      1.0000 0.56020  0.24410  0.56480  Biso   1.000  C
  C50      1.0000 0.59340  0.24490  0.53010  Biso   1.000  C
  C51      1.0000 0.59380  0.21370  0.49860  Biso   1.000  C
  O52      1.0000 0.06022  0.77396  0.09374  Biso   1.000  O
  O53      1.0000 0.03216  0.71466  0.06512  Biso   1.000  O
  O54      1.0000 0.15340  0.68320  0.90090  Biso   1.000  O
  C52      1.0000 0.06020  0.74410  0.06480  Biso   1.000  C
  C53      1.0000 0.09340  0.74490  0.03010  Biso   1.000  C
  C54      1.0000 0.09380  0.71370  0.99860  Biso   1.000  C
  O55      1.0000 0.43978  0.77396  0.90626  Biso   1.000  O
  O56      1.0000 0.46784  0.71466  0.93488  Biso   1.000  O
  O57      1.0000 0.34660  0.68320  0.09910  Biso   1.000  O
  C55      1.0000 0.43980  0.74410  0.93520  Biso   1.000  C
  C56      1.0000 0.40660  0.74490  0.96990  Biso   1.000  C
  C57      1.0000 0.40620  0.71370  0.00140  Biso   1.000  C
  O58      1.0000 0.93978  0.27396  0.40626  Biso   1.000  O
  O59      1.0000 0.96784  0.21466  0.43488  Biso   1.000  O
  O60      1.0000 0.84660  0.18320  0.59910  Biso   1.000  O
  C58      1.0000 0.93980  0.24410  0.43520  Biso   1.000  C
  C59      1.0000 0.90660  0.24490  0.46990  Biso   1.000  C
  C60      1.0000 0.90620  0.21370  0.50140  Biso   1.000  C
  O61      1.0000 0.06022  0.22604  0.40626  Biso   1.000  O
  O62      1.0000 0.03216  0.28534  0.43488  Biso   1.000  O
  O63      1.0000 0.15340  0.31680  0.59910  Biso   1.000  O
  C61      1.0000 0.06020  0.25590  0.43520  Biso   1.000  C
  C62      1.0000 0.09340  0.25510  0.46990  Biso   1.000  C
  C63      1.0000 0.09380  0.28630  0.50140  Biso   1.000  C
  O64      1.0000 0.56022  0.72604  0.90626  Biso   1.000  O
  O65      1.0000 0.53216  0.78534  0.93488  Biso   1.000  O
  O66      1.0000 0.65340  0.81680  0.09910  Biso   1.000  O
  C64      1.0000 0.56020  0.75590  0.93520  Biso   1.000  C
  C65      1.0000 0.59340  0.75510  0.96990  Biso   1.000  C
  C66      1.0000 0.59380  0.78630  0.00140  Biso   1.000  C
  O67      1.0000 0.93978  0.72604  0.09374  Biso   1.000  O
  O68      1.0000 0.96784  0.78534  0.06512  Biso   1.000  O
  O69      1.0000 0.84660  0.81680  0.90090  Biso   1.000  O
  C67      1.0000 0.93980  0.75590  0.06480  Biso   1.000  C
  C68      1.0000 0.90660  0.75510  0.03010  Biso   1.000  C
  C69      1.0000 0.90620  0.78630  0.99860  Biso   1.000  C
  O70      1.0000 0.43978  0.22604  0.59374  Biso   1.000  O
  O71      1.0000 0.46784  0.28534  0.56512  Biso   1.000  O
  O72      1.0000 0.34660  0.31680  0.40090  Biso   1.000  O
  C70      1.0000 0.43980  0.25590  0.56480  Biso   1.000  C
  C71      1.0000 0.40660  0.25510  0.53010  Biso   1.000  C
  C72      1.0000 0.40620  0.28630  0.49860  Biso   1.000  C
  O73      1.0000 0.31022  0.84374  0.97604  Biso   1.000  O
  O74      1.0000 0.28216  0.81512  0.03534  Biso   1.000  O
  O75      1.0000 0.40340  0.65090  0.06680  Biso   1.000  O
  C73      1.0000 0.31020  0.81480  0.00590  Biso   1.000  C
  C74      1.0000 0.34340  0.78010  0.00510  Biso   1.000  C
  C75      1.0000 0.34380  0.74860  0.03630  Biso   1.000  C
  O76      1.0000 0.81022  0.34374  0.47604  Biso   1.000  O
  O77      1.0000 0.78216  0.31512  0.53534  Biso   1.000  O
  O78      1.0000 0.90340  0.15090  0.56680  Biso   1.000  O
  C76      1.0000 0.81020  0.31480  0.50590  Biso   1.000  C
  C77      1.0000 0.84340  0.28010  0.50510  Biso   1.000  C
  C78      1.0000 0.84380  0.24860  0.53630  Biso   1.000  C
  O79      1.0000 0.18978  0.15626  0.47604  Biso   1.000  O
  O80      1.0000 0.21784  0.18488  0.53534  Biso   1.000  O
  O81      1.0000 0.09660  0.34910  0.56680  Biso   1.000  O
  C79      1.0000 0.18980  0.18520  0.50590  Biso   1.000  C
  C80      1.0000 0.15660  0.21990  0.50510  Biso   1.000  C
  C81      1.0000 0.15620  0.25140  0.53630  Biso   1.000  C
  O82      1.0000 0.68978  0.65626  0.97604  Biso   1.000  O
  O83      1.0000 0.71784  0.68488  0.03534  Biso   1.000  O
  O84      1.0000 0.59660  0.84910  0.06680  Biso   1.000  O
  C82      1.0000 0.68980  0.68520  0.00590  Biso   1.000  C
  C83      1.0000 0.65660  0.71990  0.00510  Biso   1.000  C
  C84      1.0000 0.65620  0.75140  0.03630  Biso   1.000  C
  O85      1.0000 0.81022  0.65626  0.02396  Biso   1.000  O
  O86      1.0000 0.78216  0.68488  0.96466  Biso   1.000  O
  O87      1.0000 0.90340  0.84910  0.93320  Biso   1.000  O
  C85      1.0000 0.81020  0.68520  0.99410  Biso   1.000  C
  C86      1.0000 0.84340  0.71990  0.99490  Biso   1.000  C
  C87      1.0000 0.84380  0.75140  0.96370  Biso   1.000  C
  O88      1.0000 0.31022  0.15626  0.52396  Biso   1.000  O
  O89      1.0000 0.28216  0.18488  0.46466  Biso   1.000  O
  O90      1.0000 0.40340  0.34910  0.43320  Biso   1.000  O
  C88      1.0000 0.31020  0.18520  0.49410  Biso   1.000  C
  C89      1.0000 0.34340  0.21990  0.49490  Biso   1.000  C
  C90      1.0000 0.34380  0.25140  0.46370  Biso   1.000  C
  O91      1.0000 0.68978  0.34374  0.52396  Biso   1.000  O
  O92      1.0000 0.71784  0.31512  0.46466  Biso   1.000  O
  O93      1.0000 0.59660  0.15090  0.43320  Biso   1.000  O
  C91      1.0000 0.68980  0.31480  0.49410  Biso   1.000  C
  C92      1.0000 0.65660  0.28010  0.49490  Biso   1.000  C
  C93      1.0000 0.65620  0.24860  0.46370  Biso   1.000  C
  O94      1.0000 0.18978  0.84374  0.02396  Biso   1.000  O
  O95      1.0000 0.21784  0.81512  0.96466  Biso   1.000  O
  O96      1.0000 0.09660  0.65090  0.93320  Biso   1.000  O
  C94      1.0000 0.18980  0.81480  0.99410  Biso   1.000  C
  C95      1.0000 0.15660  0.78010  0.99490  Biso   1.000  C
  C96      1.0000 0.15620  0.74860  0.96370  Biso   1.000  C
  O97      1.0000 0.34374  0.52396  0.68978  Biso   1.000  O
  O98      1.0000 0.31512  0.46466  0.71784  Biso   1.000  O
  O99      1.0000 0.15090  0.43320  0.59660  Biso   1.000  O
  C97      1.0000 0.31480  0.49410  0.68980  Biso   1.000  C
  C98      1.0000 0.28010  0.49490  0.65660  Biso   1.000  C
  C99      1.0000 0.24860  0.46370  0.65620  Biso   1.000  C
  O100     1.0000 0.84374  0.02396  0.18978  Biso   1.000  O
  O101     1.0000 0.81512  0.96466  0.21784  Biso   1.000  O
  O102     1.0000 0.65090  0.93320  0.09660  Biso   1.000  O
  C100     1.0000 0.81480  0.99410  0.18980  Biso   1.000  C
  C101     1.0000 0.78010  0.99490  0.15660  Biso   1.000  C
  C102     1.0000 0.74860  0.96370  0.15620  Biso   1.000  C
  O103     1.0000 0.65626  0.02396  0.81022  Biso   1.000  O
  O104     1.0000 0.68488  0.96466  0.78216  Biso   1.000  O
  O105     1.0000 0.84910  0.93320  0.90340  Biso   1.000  O
  C103     1.0000 0.68520  0.99410  0.81020  Biso   1.000  C
  C104     1.0000 0.71990  0.99490  0.84340  Biso   1.000  C
  C105     1.0000 0.75140  0.96370  0.84380  Biso   1.000  C
  O106     1.0000 0.15626  0.52396  0.31022  Biso   1.000  O
  O107     1.0000 0.18488  0.46466  0.28216  Biso   1.000  O
  O108     1.0000 0.34910  0.43320  0.40340  Biso   1.000  O
  C106     1.0000 0.18520  0.49410  0.31020  Biso   1.000  C
  C107     1.0000 0.21990  0.49490  0.34340  Biso   1.000  C
  C108     1.0000 0.25140  0.46370  0.34380  Biso   1.000  C
  O109     1.0000 0.15626  0.47604  0.18978  Biso   1.000  O
  O110     1.0000 0.18488  0.53534  0.21784  Biso   1.000  O
  O111     1.0000 0.34910  0.56680  0.09660  Biso   1.000  O
  C109     1.0000 0.18520  0.50590  0.18980  Biso   1.000  C
  C110     1.0000 0.21990  0.50510  0.15660  Biso   1.000  C
  C111     1.0000 0.25140  0.53630  0.15620  Biso   1.000  C
  O112     1.0000 0.65626  0.97604  0.68978  Biso   1.000  O
  O113     1.0000 0.68488  0.03534  0.71784  Biso   1.000  O
  O114     1.0000 0.84910  0.06680  0.59660  Biso   1.000  O
  C112     1.0000 0.68520  0.00590  0.68980  Biso   1.000  C
  C113     1.0000 0.71990  0.00510  0.65660  Biso   1.000  C
  C114     1.0000 0.75140  0.03630  0.65620  Biso   1.000  C
  O115     1.0000 0.84374  0.97604  0.31022  Biso   1.000  O
  O116     1.0000 0.81512  0.03534  0.28216  Biso   1.000  O
  O117     1.0000 0.65090  0.06680  0.40340  Biso   1.000  O
  C115     1.0000 0.81480  0.00590  0.31020  Biso   1.000  C
  C116     1.0000 0.78010  0.00510  0.34340  Biso   1.000  C
  C117     1.0000 0.74860  0.03630  0.34380  Biso   1.000  C
  O118     1.0000 0.34374  0.47604  0.81022  Biso   1.000  O
  O119     1.0000 0.31512  0.53534  0.78216  Biso   1.000  O
  O120     1.0000 0.15090  0.56680  0.90340  Biso   1.000  O
  C118     1.0000 0.31480  0.50590  0.81020  Biso   1.000  C
  C119     1.0000 0.28010  0.50510  0.84340  Biso   1.000  C
  C120     1.0000 0.24860  0.53630  0.84380  Biso   1.000  C
  O121     1.0000 0.02396  0.81022  0.65626  Biso   1.000  O
  O122     1.0000 0.96466  0.78216  0.68488  Biso   1.000  O
  O123     1.0000 0.93320  0.90340  0.84910  Biso   1.000  O
  C121     1.0000 0.99410  0.81020  0.68520  Biso   1.000  C
  C122     1.0000 0.99490  0.84340  0.71990  Biso   1.000  C
  C123     1.0000 0.96370  0.84380  0.75140  Biso   1.000  C
  O124     1.0000 0.52396  0.31022  0.15626  Biso   1.000  O
  O125     1.0000 0.46466  0.28216  0.18488  Biso   1.000  O
  O126     1.0000 0.43320  0.40340  0.34910  Biso   1.000  O
  C124     1.0000 0.49410  0.31020  0.18520  Biso   1.000  C
  C125     1.0000 0.49490  0.34340  0.21990  Biso   1.000  C
  C126     1.0000 0.46370  0.34380  0.25140  Biso   1.000  C
  O127     1.0000 0.52396  0.68978  0.34374  Biso   1.000  O
  O128     1.0000 0.46466  0.71784  0.31512  Biso   1.000  O
  O129     1.0000 0.43320  0.59660  0.15090  Biso   1.000  O
  C127     1.0000 0.49410  0.68980  0.31480  Biso   1.000  C
  C128     1.0000 0.49490  0.65660  0.28010  Biso   1.000  C
  C129     1.0000 0.46370  0.65620  0.24860  Biso   1.000  C
  O130     1.0000 0.02396  0.18978  0.84374  Biso   1.000  O
  O131     1.0000 0.96466  0.21784  0.81512  Biso   1.000  O
  O132     1.0000 0.93320  0.09660  0.65090  Biso   1.000  O
  C130     1.0000 0.99410  0.18980  0.81480  Biso   1.000  C
  C131     1.0000 0.99490  0.15660  0.78010  Biso   1.000  C
  C132     1.0000 0.96370  0.15620  0.74860  Biso   1.000  C
  O133     1.0000 0.97604  0.31022  0.84374  Biso   1.000  O
  O134     1.0000 0.03534  0.28216  0.81512  Biso   1.000  O
  O135     1.0000 0.06680  0.40340  0.65090  Biso   1.000  O
  C133     1.0000 0.00590  0.31020  0.81480  Biso   1.000  C
  C134     1.0000 0.00510  0.34340  0.78010  Biso   1.000  C
  C135     1.0000 0.03630  0.34380  0.74860  Biso   1.000  C
  O136     1.0000 0.47604  0.81022  0.34374  Biso   1.000  O
  O137     1.0000 0.53534  0.78216  0.31512  Biso   1.000  O
  O138     1.0000 0.56680  0.90340  0.15090  Biso   1.000  O
  C136     1.0000 0.50590  0.81020  0.31480  Biso   1.000  C
  C137     1.0000 0.50510  0.84340  0.28010  Biso   1.000  C
  C138     1.0000 0.53630  0.84380  0.24860  Biso   1.000  C
  O139     1.0000 0.47604  0.18978  0.15626  Biso   1.000  O
  O140     1.0000 0.53534  0.21784  0.18488  Biso   1.000  O
  O141     1.0000 0.56680  0.09660  0.34910  Biso   1.000  O
  C139     1.0000 0.50590  0.18980  0.18520  Biso   1.000  C
  C140     1.0000 0.50510  0.15660  0.21990  Biso   1.000  C
  C141     1.0000 0.53630  0.15620  0.25140  Biso   1.000  C
  O142     1.0000 0.97604  0.68978  0.65626  Biso   1.000  O
  O143     1.0000 0.03534  0.71784  0.68488  Biso   1.000  O
  O144     1.0000 0.06680  0.59660  0.84910  Biso   1.000  O
  C142     1.0000 0.00590  0.68980  0.68520  Biso   1.000  C
  C143     1.0000 0.00510  0.65660  0.71990  Biso   1.000  C
  C144     1.0000 0.03630  0.65620  0.75140  Biso   1.000  C
  O145     1.0000 0.40626  0.43978  0.72604  Biso   1.000  O
  O146     1.0000 0.43488  0.46784  0.78534  Biso   1.000  O
  O147     1.0000 0.59910  0.34660  0.81680  Biso   1.000  O
  C145     1.0000 0.43520  0.43980  0.75590  Biso   1.000  C
  C146     1.0000 0.46990  0.40660  0.75510  Biso   1.000  C
  C147     1.0000 0.50140  0.40620  0.78630  Biso   1.000  C
  O148     1.0000 0.90626  0.93978  0.22604  Biso   1.000  O
  O149     1.0000 0.93488  0.96784  0.28534  Biso   1.000  O
  O150     1.0000 0.09910  0.84660  0.31680  Biso   1.000  O
  C148     1.0000 0.93520  0.93980  0.25590  Biso   1.000  C
  C149     1.0000 0.96990  0.90660  0.25510  Biso   1.000  C
  C150     1.0000 0.00140  0.90620  0.28630  Biso   1.000  C
  O151     1.0000 0.09374  0.56022  0.22604  Biso   1.000  O
  O152     1.0000 0.06512  0.53216  0.28534  Biso   1.000  O
  O153     1.0000 0.90090  0.65340  0.31680  Biso   1.000  O
  C151     1.0000 0.06480  0.56020  0.25590  Biso   1.000  C
  C152     1.0000 0.03010  0.59340  0.25510  Biso   1.000  C
  C153     1.0000 0.99860  0.59380  0.28630  Biso   1.000  C
  O154     1.0000 0.59374  0.06022  0.72604  Biso   1.000  O
  O155     1.0000 0.56512  0.03216  0.78534  Biso   1.000  O
  O156     1.0000 0.40090  0.15340  0.81680  Biso   1.000  O
  C154     1.0000 0.56480  0.06020  0.75590  Biso   1.000  C
  C155     1.0000 0.53010  0.09340  0.75510  Biso   1.000  C
  C156     1.0000 0.49860  0.09380  0.78630  Biso   1.000  C
  O157     1.0000 0.59374  0.93978  0.77396  Biso   1.000  O
  O158     1.0000 0.56512  0.96784  0.71466  Biso   1.000  O
  O159     1.0000 0.40090  0.84660  0.68320  Biso   1.000  O
  C157     1.0000 0.56480  0.93980  0.74410  Biso   1.000  C
  C158     1.0000 0.53010  0.90660  0.74490  Biso   1.000  C
  C159     1.0000 0.49860  0.90620  0.71370  Biso   1.000  C
  O160     1.0000 0.09374  0.43978  0.27396  Biso   1.000  O
  O161     1.0000 0.06512  0.46784  0.21466  Biso   1.000  O
  O162     1.0000 0.90090  0.34660  0.18320  Biso   1.000  O
  C160     1.0000 0.06480  0.43980  0.24410  Biso   1.000  C
  C161     1.0000 0.03010  0.40660  0.24490  Biso   1.000  C
  C162     1.0000 0.99860  0.40620  0.21370  Biso   1.000  C
  O163     1.0000 0.90626  0.06022  0.27396  Biso   1.000  O
  O164     1.0000 0.93488  0.03216  0.21466  Biso   1.000  O
  O165     1.0000 0.09910  0.15340  0.18320  Biso   1.000  O
  C163     1.0000 0.93520  0.06020  0.24410  Biso   1.000  C
  C164     1.0000 0.96990  0.09340  0.24490  Biso   1.000  C
  C165     1.0000 0.00140  0.09380  0.21370  Biso   1.000  C
  O166     1.0000 0.40626  0.56022  0.77396  Biso   1.000  O
  O167     1.0000 0.43488  0.53216  0.71466  Biso   1.000  O
  O168     1.0000 0.59910  0.65340  0.68320  Biso   1.000  O
  C166     1.0000 0.43520  0.56020  0.74410  Biso   1.000  C
  C167     1.0000 0.46990  0.59340  0.74490  Biso   1.000  C
  C168     1.0000 0.50140  0.59380  0.71370  Biso   1.000  C
  O169     1.0000 0.72604  0.40626  0.43978  Biso   1.000  O
  O170     1.0000 0.78534  0.43488  0.46784  Biso   1.000  O
  O171     1.0000 0.81680  0.59910  0.34660  Biso   1.000  O
  C169     1.0000 0.75590  0.43520  0.43980  Biso   1.000  C
  C170     1.0000 0.75510  0.46990  0.40660  Biso   1.000  C
  C171     1.0000 0.78630  0.50140  0.40620  Biso   1.000  C
  O172     1.0000 0.22604  0.90626  0.93978  Biso   1.000  O
  O173     1.0000 0.28534  0.93488  0.96784  Biso   1.000  O
  O174     1.0000 0.31680  0.09910  0.84660  Biso   1.000  O
  C172     1.0000 0.25590  0.93520  0.93980  Biso   1.000  C
  C173     1.0000 0.25510  0.96990  0.90660  Biso   1.000  C
  C174     1.0000 0.28630  0.00140  0.90620  Biso   1.000  C
  O175     1.0000 0.22604  0.09374  0.56022  Biso   1.000  O
  O176     1.0000 0.28534  0.06512  0.53216  Biso   1.000  O
  O177     1.0000 0.31680  0.90090  0.65340  Biso   1.000  O
  C175     1.0000 0.25590  0.06480  0.56020  Biso   1.000  C
  C176     1.0000 0.25510  0.03010  0.59340  Biso   1.000  C
  C177     1.0000 0.28630  0.99860  0.59380  Biso   1.000  C
  O178     1.0000 0.72604  0.59374  0.06022  Biso   1.000  O
  O179     1.0000 0.78534  0.56512  0.03216  Biso   1.000  O
  O180     1.0000 0.81680  0.40090  0.15340  Biso   1.000  O
  C178     1.0000 0.75590  0.56480  0.06020  Biso   1.000  C
  C179     1.0000 0.75510  0.53010  0.09340  Biso   1.000  C
  C180     1.0000 0.78630  0.49860  0.09380  Biso   1.000  C
  O181     1.0000 0.77396  0.59374  0.93978  Biso   1.000  O
  O182     1.0000 0.71466  0.56512  0.96784  Biso   1.000  O
  O183     1.0000 0.68320  0.40090  0.84660  Biso   1.000  O
  C181     1.0000 0.74410  0.56480  0.93980  Biso   1.000  C
  C182     1.0000 0.74490  0.53010  0.90660  Biso   1.000  C
  C183     1.0000 0.71370  0.49860  0.90620  Biso   1.000  C
  O184     1.0000 0.27396  0.09374  0.43978  Biso   1.000  O
  O185     1.0000 0.21466  0.06512  0.46784  Biso   1.000  O
  O186     1.0000 0.18320  0.90090  0.34660  Biso   1.000  O
  C184     1.0000 0.24410  0.06480  0.43980  Biso   1.000  C
  C185     1.0000 0.24490  0.03010  0.40660  Biso   1.000  C
  C186     1.0000 0.21370  0.99860  0.40620  Biso   1.000  C
  O187     1.0000 0.27396  0.90626  0.06022  Biso   1.000  O
  O188     1.0000 0.21466  0.93488  0.03216  Biso   1.000  O
  O189     1.0000 0.18320  0.09910  0.15340  Biso   1.000  O
  C187     1.0000 0.24410  0.93520  0.06020  Biso   1.000  C
  C188     1.0000 0.24490  0.96990  0.09340  Biso   1.000  C
  C189     1.0000 0.21370  0.00140  0.09380  Biso   1.000  C
  O190     1.0000 0.77396  0.40626  0.56022  Biso   1.000  O
  O191     1.0000 0.71466  0.43488  0.53216  Biso   1.000  O
  O192     1.0000 0.68320  0.59910  0.65340  Biso   1.000  O
  C190     1.0000 0.74410  0.43520  0.56020  Biso   1.000  C
  C191     1.0000 0.74490  0.46990  0.59340  Biso   1.000  C
  C192     1.0000 0.71370  0.50140  0.59380  Biso   1.000  C
  O193     1.0000 0.43978  0.72604  0.40626  Biso   1.000  O
  O194     1.0000 0.46784  0.78534  0.43488  Biso   1.000  O
  O195     1.0000 0.34660  0.81680  0.59910  Biso   1.000  O
  C193     1.0000 0.43980  0.75590  0.43520  Biso   1.000  C
  C194     1.0000 0.40660  0.75510  0.46990  Biso   1.000  C
  C195     1.0000 0.40620  0.78630  0.50140  Biso   1.000  C
  O196     1.0000 0.93978  0.22604  0.90626  Biso   1.000  O
  O197     1.0000 0.96784  0.28534  0.93488  Biso   1.000  O
  O198     1.0000 0.84660  0.31680  0.09910  Biso   1.000  O
  C196     1.0000 0.93980  0.25590  0.93520  Biso   1.000  C
  C197     1.0000 0.90660  0.25510  0.96990  Biso   1.000  C
  C198     1.0000 0.90620  0.28630  0.00140  Biso   1.000  C
  O199     1.0000 0.56022  0.22604  0.09374  Biso   1.000  O
  O200     1.0000 0.53216  0.28534  0.06512  Biso   1.000  O
  O201     1.0000 0.65340  0.31680  0.90090  Biso   1.000  O
  C199     1.0000 0.56020  0.25590  0.06480  Biso   1.000  C
  C200     1.0000 0.59340  0.25510  0.03010  Biso   1.000  C
  C201     1.0000 0.59380  0.28630  0.99860  Biso   1.000  C
  O202     1.0000 0.06022  0.72604  0.59374  Biso   1.000  O
  O203     1.0000 0.03216  0.78534  0.56512  Biso   1.000  O
  O204     1.0000 0.15340  0.81680  0.40090  Biso   1.000  O
  C202     1.0000 0.06020  0.75590  0.56480  Biso   1.000  C
  C203     1.0000 0.09340  0.75510  0.53010  Biso   1.000  C
  C204     1.0000 0.09380  0.78630  0.49860  Biso   1.000  C
  O205     1.0000 0.93978  0.77396  0.59374  Biso   1.000  O
  O206     1.0000 0.96784  0.71466  0.56512  Biso   1.000  O
  O207     1.0000 0.84660  0.68320  0.40090  Biso   1.000  O
  C205     1.0000 0.93980  0.74410  0.56480  Biso   1.000  C
  C206     1.0000 0.90660  0.74490  0.53010  Biso   1.000  C
  C207     1.0000 0.90620  0.71370  0.49860  Biso   1.000  C
  O208     1.0000 0.43978  0.27396  0.09374  Biso   1.000  O
  O209     1.0000 0.46784  0.21466  0.06512  Biso   1.000  O
  O210     1.0000 0.34660  0.18320  0.90090  Biso   1.000  O
  C208     1.0000 0.43980  0.24410  0.06480  Biso   1.000  C
  C209     1.0000 0.40660  0.24490  0.03010  Biso   1.000  C
  C210     1.0000 0.40620  0.21370  0.99860  Biso   1.000  C
  O211     1.0000 0.06022  0.27396  0.90626  Biso   1.000  O
  O212     1.0000 0.03216  0.21466  0.93488  Biso   1.000  O
  O213     1.0000 0.15340  0.18320  0.09910  Biso   1.000  O
  C211     1.0000 0.06020  0.24410  0.93520  Biso   1.000  C
  C212     1.0000 0.09340  0.24490  0.96990  Biso   1.000  C
  C213     1.0000 0.09380  0.21370  0.00140  Biso   1.000  C
  O214     1.0000 0.56022  0.77396  0.40626  Biso   1.000  O
  O215     1.0000 0.53216  0.71466  0.43488  Biso   1.000  O
  O216     1.0000 0.65340  0.68320  0.59910  Biso   1.000  O
  C214     1.0000 0.56020  0.74410  0.43520  Biso   1.000  C
  C215     1.0000 0.59340  0.74490  0.46990  Biso   1.000  C
  C216     1.0000 0.59380  0.71370  0.50140  Biso   1.000  C
  O217     1.0000 0.68978  0.15626  0.02396  Biso   1.000  O
  O218     1.0000 0.71784  0.18488  0.96466  Biso   1.000  O
  O219     1.0000 0.59660  0.34910  0.93320  Biso   1.000  O
  C217     1.0000 0.68980  0.18520  0.99410  Biso   1.000  C
  C218     1.0000 0.65660  0.21990  0.99490  Biso   1.000  C
  C219     1.0000 0.65620  0.25140  0.96370  Biso   1.000  C
  O220     1.0000 0.18978  0.65626  0.52396  Biso   1.000  O
  O221     1.0000 0.21784  0.68488  0.46466  Biso   1.000  O
  O222     1.0000 0.09660  0.84910  0.43320  Biso   1.000  O
  C220     1.0000 0.18980  0.68520  0.49410  Biso   1.000  C
  C221     1.0000 0.15660  0.71990  0.49490  Biso   1.000  C
  C222     1.0000 0.15620  0.75140  0.46370  Biso   1.000  C
  O223     1.0000 0.81022  0.84374  0.52396  Biso   1.000  O
  O224     1.0000 0.78216  0.81512  0.46466  Biso   1.000  O
  O225     1.0000 0.90340  0.65090  0.43320  Biso   1.000  O
  C223     1.0000 0.81020  0.81480  0.49410  Biso   1.000  C
  C224     1.0000 0.84340  0.78010  0.49490  Biso   1.000  C
  C225     1.0000 0.84380  0.74860  0.46370  Biso   1.000  C
  O226     1.0000 0.31022  0.34374  0.02396  Biso   1.000  O
  O227     1.0000 0.28216  0.31512  0.96466  Biso   1.000  O
  O228     1.0000 0.40340  0.15090  0.93320  Biso   1.000  O
  C226     1.0000 0.31020  0.31480  0.99410  Biso   1.000  C
  C227     1.0000 0.34340  0.28010  0.99490  Biso   1.000  C
  C228     1.0000 0.34380  0.24860  0.96370  Biso   1.000  C
  O229     1.0000 0.18978  0.34374  0.97604  Biso   1.000  O
  O230     1.0000 0.21784  0.31512  0.03534  Biso   1.000  O
  O231     1.0000 0.09660  0.15090  0.06680  Biso   1.000  O
  C229     1.0000 0.18980  0.31480  0.00590  Biso   1.000  C
  C230     1.0000 0.15660  0.28010  0.00510  Biso   1.000  C
  C231     1.0000 0.15620  0.24860  0.03630  Biso   1.000  C
  O232     1.0000 0.68978  0.84374  0.47604  Biso   1.000  O
  O233     1.0000 0.71784  0.81512  0.53534  Biso   1.000  O
  O234     1.0000 0.59660  0.65090  0.56680  Biso   1.000  O
  C232     1.0000 0.68980  0.81480  0.50590  Biso   1.000  C
  C233     1.0000 0.65660  0.78010  0.50510  Biso   1.000  C
  C234     1.0000 0.65620  0.74860  0.53630  Biso   1.000  C
  O235     1.0000 0.31022  0.65626  0.47604  Biso   1.000  O
  O236     1.0000 0.28216  0.68488  0.53534  Biso   1.000  O
  O237     1.0000 0.40340  0.84910  0.56680  Biso   1.000  O
  C235     1.0000 0.31020  0.68520  0.50590  Biso   1.000  C
  C236     1.0000 0.34340  0.71990  0.50510  Biso   1.000  C
  C237     1.0000 0.34380  0.75140  0.53630  Biso   1.000  C
  O238     1.0000 0.81022  0.15626  0.97604  Biso   1.000  O
  O239     1.0000 0.78216  0.18488  0.03534  Biso   1.000  O
  O240     1.0000 0.90340  0.34910  0.06680  Biso   1.000  O
  C238     1.0000 0.81020  0.18520  0.00590  Biso   1.000  C
  C239     1.0000 0.84340  0.21990  0.00510  Biso   1.000  C
  C240     1.0000 0.84380  0.25140  0.03630  Biso   1.000  C
  O241     1.0000 0.65626  0.47604  0.31022  Biso   1.000  O
  O242     1.0000 0.68488  0.53534  0.28216  Biso   1.000  O
  O243     1.0000 0.84910  0.56680  0.40340  Biso   1.000  O
  C241     1.0000 0.68520  0.50590  0.31020  Biso   1.000  C
  C242     1.0000 0.71990  0.50510  0.34340  Biso   1.000  C
  C243     1.0000 0.75140  0.53630  0.34380  Biso   1.000  C
  O244     1.0000 0.15626  0.97604  0.81022  Biso   1.000  O
  O245     1.0000 0.18488  0.03534  0.78216  Biso   1.000  O
  O246     1.0000 0.34910  0.06680  0.90340  Biso   1.000  O
  C244     1.0000 0.18520  0.00590  0.81020  Biso   1.000  C
  C245     1.0000 0.21990  0.00510  0.84340  Biso   1.000  C
  C246     1.0000 0.25140  0.03630  0.84380  Biso   1.000  C
  O247     1.0000 0.34374  0.97604  0.18978  Biso   1.000  O
  O248     1.0000 0.31512  0.03534  0.21784  Biso   1.000  O
  O249     1.0000 0.15090  0.06680  0.09660  Biso   1.000  O
  C247     1.0000 0.31480  0.00590  0.18980  Biso   1.000  C
  C248     1.0000 0.28010  0.00510  0.15660  Biso   1.000  C
  C249     1.0000 0.24860  0.03630  0.15620  Biso   1.000  C
  O250     1.0000 0.84374  0.47604  0.68978  Biso   1.000  O
  O251     1.0000 0.81512  0.53534  0.71784  Biso   1.000  O
  O252     1.0000 0.65090  0.56680  0.59660  Biso   1.000  O
  C250     1.0000 0.81480  0.50590  0.68980  Biso   1.000  C
  C251     1.0000 0.78010  0.50510  0.65660  Biso   1.000  C
  C252     1.0000 0.74860  0.53630  0.65620  Biso   1.000  C
  O253     1.0000 0.84374  0.52396  0.81022  Biso   1.000  O
  O254     1.0000 0.81512  0.46466  0.78216  Biso   1.000  O
  O255     1.0000 0.65090  0.43320  0.90340  Biso   1.000  O
  C253     1.0000 0.81480  0.49410  0.81020  Biso   1.000  C
  C254     1.0000 0.78010  0.49490  0.84340  Biso   1.000  C
  C255     1.0000 0.74860  0.46370  0.84380  Biso   1.000  C
  O256     1.0000 0.34374  0.02396  0.31022  Biso   1.000  O
  O257     1.0000 0.31512  0.96466  0.28216  Biso   1.000  O
  O258     1.0000 0.15090  0.93320  0.40340  Biso   1.000  O
  C256     1.0000 0.31480  0.99410  0.31020  Biso   1.000  C
  C257     1.0000 0.28010  0.99490  0.34340  Biso   1.000  C
  C258     1.0000 0.24860  0.96370  0.34380  Biso   1.000  C
  O259     1.0000 0.15626  0.02396  0.68978  Biso   1.000  O
  O260     1.0000 0.18488  0.96466  0.71784  Biso   1.000  O
  O261     1.0000 0.34910  0.93320  0.59660  Biso   1.000  O
  C259     1.0000 0.18520  0.99410  0.68980  Biso   1.000  C
  C260     1.0000 0.21990  0.99490  0.65660  Biso   1.000  C
  C261     1.0000 0.25140  0.96370  0.65620  Biso   1.000  C
  O262     1.0000 0.65626  0.52396  0.18978  Biso   1.000  O
  O263     1.0000 0.68488  0.46466  0.21784  Biso   1.000  O
  O264     1.0000 0.84910  0.43320  0.09660  Biso   1.000  O
  C262     1.0000 0.68520  0.49410  0.18980  Biso   1.000  C
  C263     1.0000 0.71990  0.49490  0.15660  Biso   1.000  C
  C264     1.0000 0.75140  0.46370  0.15620  Biso   1.000  C
  O265     1.0000 0.97604  0.18978  0.34374  Biso   1.000  O
  O266     1.0000 0.03534  0.21784  0.31512  Biso   1.000  O
  O267     1.0000 0.06680  0.09660  0.15090  Biso   1.000  O
  C265     1.0000 0.00590  0.18980  0.31480  Biso   1.000  C
  C266     1.0000 0.00510  0.15660  0.28010  Biso   1.000  C
  C267     1.0000 0.03630  0.15620  0.24860  Biso   1.000  C
  O268     1.0000 0.47604  0.68978  0.84374  Biso   1.000  O
  O269     1.0000 0.53534  0.71784  0.81512  Biso   1.000  O
  O270     1.0000 0.56680  0.59660  0.65090  Biso   1.000  O
  C268     1.0000 0.50590  0.68980  0.81480  Biso   1.000  C
  C269     1.0000 0.50510  0.65660  0.78010  Biso   1.000  C
  C270     1.0000 0.53630  0.65620  0.74860  Biso   1.000  C
  O271     1.0000 0.47604  0.31022  0.65626  Biso   1.000  O
  O272     1.0000 0.53534  0.28216  0.68488  Biso   1.000  O
  O273     1.0000 0.56680  0.40340  0.84910  Biso   1.000  O
  C271     1.0000 0.50590  0.31020  0.68520  Biso   1.000  C
  C272     1.0000 0.50510  0.34340  0.71990  Biso   1.000  C
  C273     1.0000 0.53630  0.34380  0.75140  Biso   1.000  C
  O274     1.0000 0.97604  0.81022  0.15626  Biso   1.000  O
  O275     1.0000 0.03534  0.78216  0.18488  Biso   1.000  O
  O276     1.0000 0.06680  0.90340  0.34910  Biso   1.000  O
  C274     1.0000 0.00590  0.81020  0.18520  Biso   1.000  C
  C275     1.0000 0.00510  0.84340  0.21990  Biso   1.000  C
  C276     1.0000 0.03630  0.84380  0.25140  Biso   1.000  C
  O277     1.0000 0.02396  0.68978  0.15626  Biso   1.000  O
  O278     1.0000 0.96466  0.71784  0.18488  Biso   1.000  O
  O279     1.0000 0.93320  0.59660  0.34910  Biso   1.000  O
  C277     1.0000 0.99410  0.68980  0.18520  Biso   1.000  C
  C278     1.0000 0.99490  0.65660  0.21990  Biso   1.000  C
  C279     1.0000 0.96370  0.65620  0.25140  Biso   1.000  C
  O280     1.0000 0.52396  0.18978  0.65626  Biso   1.000  O
  O281     1.0000 0.46466  0.21784  0.68488  Biso   1.000  O
  O282     1.0000 0.43320  0.09660  0.84910  Biso   1.000  O
  C280     1.0000 0.49410  0.18980  0.68520  Biso   1.000  C
  C281     1.0000 0.49490  0.15660  0.71990  Biso   1.000  C
  C282     1.0000 0.46370  0.15620  0.75140  Biso   1.000  C
  O283     1.0000 0.52396  0.81022  0.84374  Biso   1.000  O
  O284     1.0000 0.46466  0.78216  0.81512  Biso   1.000  O
  O285     1.0000 0.43320  0.90340  0.65090  Biso   1.000  O
  C283     1.0000 0.49410  0.81020  0.81480  Biso   1.000  C
  C284     1.0000 0.49490  0.84340  0.78010  Biso   1.000  C
  C285     1.0000 0.46370  0.84380  0.74860  Biso   1.000  C
  O286     1.0000 0.02396  0.31022  0.34374  Biso   1.000  O
  O287     1.0000 0.96466  0.28216  0.31512  Biso   1.000  O
  O288     1.0000 0.93320  0.40340  0.15090  Biso   1.000  O
  C286     1.0000 0.99410  0.31020  0.31480  Biso   1.000  C
  C287     1.0000 0.99490  0.34340  0.28010  Biso   1.000  C
  C288     1.0000 0.96370  0.34380  0.24860  Biso   1.000  C
  In1      1.0000 0.62500  0.50000  0.25000  Biso   1.000  In
  In2      1.0000 0.87500  0.50000  0.75000  Biso   1.000  In
  In3      1.0000 0.37500  0.00000  0.25000  Biso   1.000  In
  In4      1.0000 0.12500  0.00000  0.75000  Biso   1.000  In
  In5      1.0000 0.25000  0.62500  0.50000  Biso   1.000  In
  In6      1.0000 0.75000  0.87500  0.50000  Biso   1.000  In
  In7      1.0000 0.25000  0.37500  0.00000  Biso   1.000  In
  In8      1.0000 0.75000  0.12500  0.00000  Biso   1.000  In
  In9      1.0000 0.50000  0.25000  0.62500  Biso   1.000  In
  In10     1.0000 0.50000  0.75000  0.87500  Biso   1.000  In
  In11     1.0000 0.00000  0.25000  0.37500  Biso   1.000  In
  In12     1.0000 0.00000  0.75000  0.12500  Biso   1.000  In
  In13     1.0000 0.25000  0.87500  0.00000  Biso   1.000  In
  In14     1.0000 0.25000  0.12500  0.50000  Biso   1.000  In
  In15     1.0000 0.75000  0.62500  0.00000  Biso   1.000  In
  In16     1.0000 0.75000  0.37500  0.50000  Biso   1.000  In
  In17     1.0000 0.37500  0.50000  0.75000  Biso   1.000  In
  In18     1.0000 0.62500  0.00000  0.75000  Biso   1.000  In
  In19     1.0000 0.12500  0.50000  0.25000  Biso   1.000  In
  In20     1.0000 0.87500  0.00000  0.25000  Biso   1.000  In
  In21     1.0000 0.00000  0.75000  0.62500  Biso   1.000  In
  In22     1.0000 0.50000  0.75000  0.37500  Biso   1.000  In
  In23     1.0000 0.00000  0.25000  0.87500  Biso   1.000  In
  In24     1.0000 0.50000  0.25000  0.12500  Biso   1.000  In
  Co1      1.0000 0.33069  0.66931  0.16931  Biso   1.000  Co
  Co2      1.0000 0.34645  0.65355  0.15355  Biso   1.000  Co
  Co3      1.0000 0.83069  0.16931  0.66931  Biso   1.000  Co
  Co4      1.0000 0.84645  0.15355  0.65355  Biso   1.000  Co
  Co5      1.0000 0.16931  0.33069  0.66931  Biso   1.000  Co
  Co6      1.0000 0.15355  0.34645  0.65355  Biso   1.000  Co
  Co7      1.0000 0.66931  0.83069  0.16931  Biso   1.000  Co
  Co8      1.0000 0.65355  0.84645  0.15355  Biso   1.000  Co
  Co9      1.0000 0.66931  0.16931  0.33069  Biso   1.000  Co
  Co10     1.0000 0.65355  0.15355  0.34645  Biso   1.000  Co
  Co11     1.0000 0.16931  0.66931  0.83069  Biso   1.000  Co
  Co12     1.0000 0.15355  0.65355  0.84645  Biso   1.000  Co
  Co13     1.0000 0.83069  0.83069  0.83069  Biso   1.000  Co
  Co14     1.0000 0.84645  0.84645  0.84645  Biso   1.000  Co
  Co15     1.0000 0.33069  0.33069  0.33069  Biso   1.000  Co
  Co16     1.0000 0.34645  0.34645  0.34645  Biso   1.000  Co
  Co17     1.0000 0.41931  0.58069  0.08069  Biso   1.000  Co
  Co18     1.0000 0.40355  0.59645  0.09645  Biso   1.000  Co
  Co19     1.0000 0.91931  0.08069  0.58069  Biso   1.000  Co
  Co20     1.0000 0.90355  0.09645  0.59645  Biso   1.000  Co
  Co21     1.0000 0.08069  0.41931  0.58069  Biso   1.000  Co
  Co22     1.0000 0.09645  0.40355  0.59645  Biso   1.000  Co
  Co23     1.0000 0.58069  0.91931  0.08069  Biso   1.000  Co
  Co24     1.0000 0.59645  0.90355  0.09645  Biso   1.000  Co
  Co25     1.0000 0.91931  0.91931  0.91931  Biso   1.000  Co
  Co26     1.0000 0.90355  0.90355  0.90355  Biso   1.000  Co
  Co27     1.0000 0.41931  0.41931  0.41931  Biso   1.000  Co
  Co28     1.0000 0.40355  0.40355  0.40355  Biso   1.000  Co
  Co29     1.0000 0.58069  0.08069  0.41931  Biso   1.000  Co
  Co30     1.0000 0.59645  0.09645  0.40355  Biso   1.000  Co
  Co31     1.0000 0.08069  0.58069  0.91931  Biso   1.000  Co
  Co32     1.0000 0.09645  0.59645  0.90355  Biso   1.000  Co
  Co33     1.0000 0.66931  0.33069  0.83069  Biso   1.000  Co
  Co34     1.0000 0.65355  0.34645  0.84645  Biso   1.000  Co
  Co35     1.0000 0.16931  0.83069  0.33069  Biso   1.000  Co
  Co36     1.0000 0.15355  0.84645  0.34645  Biso   1.000  Co
  Co37     1.0000 0.83069  0.66931  0.33069  Biso   1.000  Co
  Co38     1.0000 0.84645  0.65355  0.34645  Biso   1.000  Co
  Co39     1.0000 0.33069  0.16931  0.83069  Biso   1.000  Co
  Co40     1.0000 0.34645  0.15355  0.84645  Biso   1.000  Co
  Co41     1.0000 0.33069  0.83069  0.66931  Biso   1.000  Co
  Co42     1.0000 0.34645  0.84645  0.65355  Biso   1.000  Co
  Co43     1.0000 0.83069  0.33069  0.16931  Biso   1.000  Co
  Co44     1.0000 0.84645  0.34645  0.15355  Biso   1.000  Co
  Co45     1.0000 0.16931  0.16931  0.16931  Biso   1.000  Co
  Co46     1.0000 0.15355  0.15355  0.15355  Biso   1.000  Co
  Co47     1.0000 0.66931  0.66931  0.66931  Biso   1.000  Co
  Co48     1.0000 0.65355  0.65355  0.65355  Biso   1.000  Co
  Co49     1.0000 0.58069  0.41931  0.91931  Biso   1.000  Co
  Co50     1.0000 0.59645  0.40355  0.90355  Biso   1.000  Co
  Co51     1.0000 0.08069  0.91931  0.41931  Biso   1.000  Co
  Co52     1.0000 0.09645  0.90355  0.40355  Biso   1.000  Co
  Co53     1.0000 0.91931  0.58069  0.41931  Biso   1.000  Co
  Co54     1.0000 0.90355  0.59645  0.40355  Biso   1.000  Co
  Co55     1.0000 0.41931  0.08069  0.91931  Biso   1.000  Co
  Co56     1.0000 0.40355  0.09645  0.90355  Biso   1.000  Co
  Co57     1.0000 0.08069  0.08069  0.08069  Biso   1.000  Co
  Co58     1.0000 0.09645  0.09645  0.09645  Biso   1.000  Co
  Co59     1.0000 0.58069  0.58069  0.58069  Biso   1.000  Co
  Co60     1.0000 0.59645  0.59645  0.59645  Biso   1.000  Co
  Co61     1.0000 0.41931  0.91931  0.58069  Biso   1.000  Co
  Co62     1.0000 0.40355  0.90355  0.59645  Biso   1.000  Co
  Co63     1.0000 0.91931  0.41931  0.08069  Biso   1.000  Co
  Co64     1.0000 0.90355  0.40355  0.09645  Biso   1.000  Co
  C289     1.0000 0.52960  0.62500  0.27960  Biso   1.000  C
  C290     1.0000 0.42940  0.62500  0.17940  Biso   1.000  C
  C291     1.0000 0.46540  0.62500  0.21540  Biso   1.000  C
  C292     1.0000 0.02960  0.12500  0.77960  Biso   1.000  C
  C293     1.0000 0.92940  0.12500  0.67940  Biso   1.000  C
  C294     1.0000 0.96540  0.12500  0.71540  Biso   1.000  C
  C295     1.0000 0.97040  0.37500  0.77960  Biso   1.000  C
  C296     1.0000 0.07060  0.37500  0.67940  Biso   1.000  C
  C297     1.0000 0.03460  0.37500  0.71540  Biso   1.000  C
  C298     1.0000 0.47040  0.87500  0.27960  Biso   1.000  C
  C299     1.0000 0.57060  0.87500  0.17940  Biso   1.000  C
  C300     1.0000 0.53460  0.87500  0.21540  Biso   1.000  C
  C301     1.0000 0.47040  0.12500  0.22040  Biso   1.000  C
  C302     1.0000 0.57060  0.12500  0.32060  Biso   1.000  C
  C303     1.0000 0.53460  0.12500  0.28460  Biso   1.000  C
  C304     1.0000 0.97040  0.62500  0.72040  Biso   1.000  C
  C305     1.0000 0.07060  0.62500  0.82060  Biso   1.000  C
  C306     1.0000 0.03460  0.62500  0.78460  Biso   1.000  C
  C307     1.0000 0.02960  0.87500  0.72040  Biso   1.000  C
  C308     1.0000 0.92940  0.87500  0.82060  Biso   1.000  C
  C309     1.0000 0.96540  0.87500  0.78460  Biso   1.000  C
  C310     1.0000 0.52960  0.37500  0.22040  Biso   1.000  C
  C311     1.0000 0.42940  0.37500  0.32060  Biso   1.000  C
  C312     1.0000 0.46540  0.37500  0.28460  Biso   1.000  C
  C313     1.0000 0.27960  0.52960  0.62500  Biso   1.000  C
  C314     1.0000 0.17940  0.42940  0.62500  Biso   1.000  C
  C315     1.0000 0.21540  0.46540  0.62500  Biso   1.000  C
  C316     1.0000 0.77960  0.02960  0.12500  Biso   1.000  C
  C317     1.0000 0.67940  0.92940  0.12500  Biso   1.000  C
  C318     1.0000 0.71540  0.96540  0.12500  Biso   1.000  C
  C319     1.0000 0.77960  0.97040  0.37500  Biso   1.000  C
  C320     1.0000 0.67940  0.07060  0.37500  Biso   1.000  C
  C321     1.0000 0.71540  0.03460  0.37500  Biso   1.000  C
  C322     1.0000 0.27960  0.47040  0.87500  Biso   1.000  C
  C323     1.0000 0.17940  0.57060  0.87500  Biso   1.000  C
  C324     1.0000 0.21540  0.53460  0.87500  Biso   1.000  C
  C325     1.0000 0.22040  0.47040  0.12500  Biso   1.000  C
  C326     1.0000 0.32060  0.57060  0.12500  Biso   1.000  C
  C327     1.0000 0.28460  0.53460  0.12500  Biso   1.000  C
  C328     1.0000 0.72040  0.97040  0.62500  Biso   1.000  C
  C329     1.0000 0.82060  0.07060  0.62500  Biso   1.000  C
  C330     1.0000 0.78460  0.03460  0.62500  Biso   1.000  C
  C331     1.0000 0.72040  0.02960  0.87500  Biso   1.000  C
  C332     1.0000 0.82060  0.92940  0.87500  Biso   1.000  C
  C333     1.0000 0.78460  0.96540  0.87500  Biso   1.000  C
  C334     1.0000 0.22040  0.52960  0.37500  Biso   1.000  C
  C335     1.0000 0.32060  0.42940  0.37500  Biso   1.000  C
  C336     1.0000 0.28460  0.46540  0.37500  Biso   1.000  C
  C337     1.0000 0.62500  0.27960  0.52960  Biso   1.000  C
  C338     1.0000 0.62500  0.17940  0.42940  Biso   1.000  C
  C339     1.0000 0.62500  0.21540  0.46540  Biso   1.000  C
  C340     1.0000 0.12500  0.77960  0.02960  Biso   1.000  C
  C341     1.0000 0.12500  0.67940  0.92940  Biso   1.000  C
  C342     1.0000 0.12500  0.71540  0.96540  Biso   1.000  C
  C343     1.0000 0.37500  0.77960  0.97040  Biso   1.000  C
  C344     1.0000 0.37500  0.67940  0.07060  Biso   1.000  C
  C345     1.0000 0.37500  0.71540  0.03460  Biso   1.000  C
  C346     1.0000 0.87500  0.27960  0.47040  Biso   1.000  C
  C347     1.0000 0.87500  0.17940  0.57060  Biso   1.000  C
  C348     1.0000 0.87500  0.21540  0.53460  Biso   1.000  C
  C349     1.0000 0.12500  0.22040  0.47040  Biso   1.000  C
  C350     1.0000 0.12500  0.32060  0.57060  Biso   1.000  C
  C351     1.0000 0.12500  0.28460  0.53460  Biso   1.000  C
  C352     1.0000 0.62500  0.72040  0.97040  Biso   1.000  C
  C353     1.0000 0.62500  0.82060  0.07060  Biso   1.000  C
  C354     1.0000 0.62500  0.78460  0.03460  Biso   1.000  C
  C355     1.0000 0.87500  0.72040  0.02960  Biso   1.000  C
  C356     1.0000 0.87500  0.82060  0.92940  Biso   1.000  C
  C357     1.0000 0.87500  0.78460  0.96540  Biso   1.000  C
  C358     1.0000 0.37500  0.22040  0.52960  Biso   1.000  C
  C359     1.0000 0.37500  0.32060  0.42940  Biso   1.000  C
  C360     1.0000 0.37500  0.28460  0.46540  Biso   1.000  C
  C361     1.0000 0.47040  0.37500  0.72040  Biso   1.000  C
  C362     1.0000 0.57060  0.37500  0.82060  Biso   1.000  C
  C363     1.0000 0.53460  0.37500  0.78460  Biso   1.000  C
  C364     1.0000 0.97040  0.87500  0.22040  Biso   1.000  C
  C365     1.0000 0.07060  0.87500  0.32060  Biso   1.000  C
  C366     1.0000 0.03460  0.87500  0.28460  Biso   1.000  C
  C367     1.0000 0.02960  0.62500  0.22040  Biso   1.000  C
  C368     1.0000 0.92940  0.62500  0.32060  Biso   1.000  C
  C369     1.0000 0.96540  0.62500  0.28460  Biso   1.000  C
  C370     1.0000 0.52960  0.12500  0.72040  Biso   1.000  C
  C371     1.0000 0.42940  0.12500  0.82060  Biso   1.000  C
  C372     1.0000 0.46540  0.12500  0.78460  Biso   1.000  C
  C373     1.0000 0.52960  0.87500  0.77960  Biso   1.000  C
  C374     1.0000 0.42940  0.87500  0.67940  Biso   1.000  C
  C375     1.0000 0.46540  0.87500  0.71540  Biso   1.000  C
  C376     1.0000 0.02960  0.37500  0.27960  Biso   1.000  C
  C377     1.0000 0.92940  0.37500  0.17940  Biso   1.000  C
  C378     1.0000 0.96540  0.37500  0.21540  Biso   1.000  C
  C379     1.0000 0.97040  0.12500  0.27960  Biso   1.000  C
  C380     1.0000 0.07060  0.12500  0.17940  Biso   1.000  C
  C381     1.0000 0.03460  0.12500  0.21540  Biso   1.000  C
  C382     1.0000 0.47040  0.62500  0.77960  Biso   1.000  C
  C383     1.0000 0.57060  0.62500  0.67940  Biso   1.000  C
  C384     1.0000 0.53460  0.62500  0.71540  Biso   1.000  C
  C385     1.0000 0.72040  0.47040  0.37500  Biso   1.000  C
  C386     1.0000 0.82060  0.57060  0.37500  Biso   1.000  C
  C387     1.0000 0.78460  0.53460  0.37500  Biso   1.000  C
  C388     1.0000 0.22040  0.97040  0.87500  Biso   1.000  C
  C389     1.0000 0.32060  0.07060  0.87500  Biso   1.000  C
  C390     1.0000 0.28460  0.03460  0.87500  Biso   1.000  C
  C391     1.0000 0.22040  0.02960  0.62500  Biso   1.000  C
  C392     1.0000 0.32060  0.92940  0.62500  Biso   1.000  C
  C393     1.0000 0.28460  0.96540  0.62500  Biso   1.000  C
  C394     1.0000 0.72040  0.52960  0.12500  Biso   1.000  C
  C395     1.0000 0.82060  0.42940  0.12500  Biso   1.000  C
  C396     1.0000 0.78460  0.46540  0.12500  Biso   1.000  C
  C397     1.0000 0.77960  0.52960  0.87500  Biso   1.000  C
  C398     1.0000 0.67940  0.42940  0.87500  Biso   1.000  C
  C399     1.0000 0.71540  0.46540  0.87500  Biso   1.000  C
  C400     1.0000 0.27960  0.02960  0.37500  Biso   1.000  C
  C401     1.0000 0.17940  0.92940  0.37500  Biso   1.000  C
  C402     1.0000 0.21540  0.96540  0.37500  Biso   1.000  C
  C403     1.0000 0.27960  0.97040  0.12500  Biso   1.000  C
  C404     1.0000 0.17940  0.07060  0.12500  Biso   1.000  C
  C405     1.0000 0.21540  0.03460  0.12500  Biso   1.000  C
  C406     1.0000 0.77960  0.47040  0.62500  Biso   1.000  C
  C407     1.0000 0.67940  0.57060  0.62500  Biso   1.000  C
  C408     1.0000 0.71540  0.53460  0.62500  Biso   1.000  C
  C409     1.0000 0.37500  0.72040  0.47040  Biso   1.000  C
  C410     1.0000 0.37500  0.82060  0.57060  Biso   1.000  C
  C411     1.0000 0.37500  0.78460  0.53460  Biso   1.000  C
  C412     1.0000 0.87500  0.22040  0.97040  Biso   1.000  C
  C413     1.0000 0.87500  0.32060  0.07060  Biso   1.000  C
  C414     1.0000 0.87500  0.28460  0.03460  Biso   1.000  C
  C415     1.0000 0.62500  0.22040  0.02960  Biso   1.000  C
  C416     1.0000 0.62500  0.32060  0.92940  Biso   1.000  C
  C417     1.0000 0.62500  0.28460  0.96540  Biso   1.000  C
  C418     1.0000 0.12500  0.72040  0.52960  Biso   1.000  C
  C419     1.0000 0.12500  0.82060  0.42940  Biso   1.000  C
  C420     1.0000 0.12500  0.78460  0.46540  Biso   1.000  C
  C421     1.0000 0.87500  0.77960  0.52960  Biso   1.000  C
  C422     1.0000 0.87500  0.67940  0.42940  Biso   1.000  C
  C423     1.0000 0.87500  0.71540  0.46540  Biso   1.000  C
  C424     1.0000 0.37500  0.27960  0.02960  Biso   1.000  C
  C425     1.0000 0.37500  0.17940  0.92940  Biso   1.000  C
  C426     1.0000 0.37500  0.21540  0.96540  Biso   1.000  C
  C427     1.0000 0.12500  0.27960  0.97040  Biso   1.000  C
  C428     1.0000 0.12500  0.17940  0.07060  Biso   1.000  C
  C429     1.0000 0.12500  0.21540  0.03460  Biso   1.000  C
  C430     1.0000 0.62500  0.77960  0.47040  Biso   1.000  C
  C431     1.0000 0.62500  0.67940  0.57060  Biso   1.000  C
  C432     1.0000 0.62500  0.71540  0.53460  Biso   1.000  C
