data_image0
_cell_length_a       30.7159
_cell_length_b       30.7159
_cell_length_c       30.7159
_cell_angle_alpha    90
_cell_angle_beta     90
_cell_angle_gamma    90

_symmetry_space_group_name_H-M    "P 1"
_symmetry_int_tables_number       1

loop_
  _symmetry_equiv_pos_as_xyz
  'x, y, z'

loop_
  _atom_site_label
  _atom_site_occupancy
  _atom_site_fract_x
  _atom_site_fract_y
  _atom_site_fract_z
  _atom_site_thermal_displace_type
  _atom_site_B_iso_or_equiv
  _atom_site_type_symbol
  O1       1.0000 0.77310  0.09350  0.06030  Biso   1.000  O
  O2       1.0000 0.71480  0.06460  0.03210  Biso   1.000  O
  O3       1.0000 0.68410  0.90040  0.15230  Biso   1.000  O
  C1       1.0000 0.71330  0.99790  0.09390  Biso   1.000  C
  C2       1.0000 0.74440  0.03000  0.09370  Biso   1.000  C
  C3       1.0000 0.71840  0.96010  0.12430  Biso   1.000  C
  C4       1.0000 0.74430  0.06510  0.06060  Biso   1.000  C
  O4       1.0000 0.27310  0.59350  0.56030  Biso   1.000  O
  O5       1.0000 0.21480  0.56460  0.53210  Biso   1.000  O
  O6       1.0000 0.18410  0.40040  0.65230  Biso   1.000  O
  C5       1.0000 0.21330  0.49790  0.59390  Biso   1.000  C
  C6       1.0000 0.24440  0.53000  0.59370  Biso   1.000  C
  C7       1.0000 0.21840  0.46010  0.62430  Biso   1.000  C
  C8       1.0000 0.24430  0.56510  0.56060  Biso   1.000  C
  O7       1.0000 0.72690  0.90650  0.56030  Biso   1.000  O
  O8       1.0000 0.78520  0.93540  0.53210  Biso   1.000  O
  O9       1.0000 0.81590  0.09960  0.65230  Biso   1.000  O
  C9       1.0000 0.78670  0.00210  0.59390  Biso   1.000  C
  C10      1.0000 0.75560  0.97000  0.59370  Biso   1.000  C
  C11      1.0000 0.78160  0.03990  0.62430  Biso   1.000  C
  C12      1.0000 0.75570  0.93490  0.56060  Biso   1.000  C
  O10      1.0000 0.22690  0.40650  0.06030  Biso   1.000  O
  O11      1.0000 0.28520  0.43540  0.03210  Biso   1.000  O
  O12      1.0000 0.31590  0.59960  0.15230  Biso   1.000  O
  C13      1.0000 0.28670  0.50210  0.09390  Biso   1.000  C
  C14      1.0000 0.25560  0.47000  0.09370  Biso   1.000  C
  C15      1.0000 0.28160  0.53990  0.12430  Biso   1.000  C
  C16      1.0000 0.25570  0.43490  0.06060  Biso   1.000  C
  O13      1.0000 0.22690  0.59350  0.43970  Biso   1.000  O
  O14      1.0000 0.28520  0.56460  0.46790  Biso   1.000  O
  O15      1.0000 0.31590  0.40040  0.34770  Biso   1.000  O
  C17      1.0000 0.28670  0.49790  0.40610  Biso   1.000  C
  C18      1.0000 0.25560  0.53000  0.40630  Biso   1.000  C
  C19      1.0000 0.28160  0.46010  0.37570  Biso   1.000  C
  C20      1.0000 0.25570  0.56510  0.43940  Biso   1.000  C
  O16      1.0000 0.72690  0.09350  0.93970  Biso   1.000  O
  O17      1.0000 0.78520  0.06460  0.96790  Biso   1.000  O
  O18      1.0000 0.81590  0.90040  0.84770  Biso   1.000  O
  C21      1.0000 0.78670  0.99790  0.90610  Biso   1.000  C
  C22      1.0000 0.75560  0.03000  0.90630  Biso   1.000  C
  C23      1.0000 0.78160  0.96010  0.87570  Biso   1.000  C
  C24      1.0000 0.75570  0.06510  0.93940  Biso   1.000  C
  O19      1.0000 0.27310  0.40650  0.93970  Biso   1.000  O
  O20      1.0000 0.21480  0.43540  0.96790  Biso   1.000  O
  O21      1.0000 0.18410  0.59960  0.84770  Biso   1.000  O
  C25      1.0000 0.21330  0.50210  0.90610  Biso   1.000  C
  C26      1.0000 0.24440  0.47000  0.90630  Biso   1.000  C
  C27      1.0000 0.21840  0.53990  0.87570  Biso   1.000  C
  C28      1.0000 0.24430  0.43490  0.93940  Biso   1.000  C
  O22      1.0000 0.77310  0.90650  0.43970  Biso   1.000  O
  O23      1.0000 0.71480  0.93540  0.46790  Biso   1.000  O
  O24      1.0000 0.68410  0.09960  0.34770  Biso   1.000  O
  C29      1.0000 0.71330  0.00210  0.40610  Biso   1.000  C
  C30      1.0000 0.74440  0.97000  0.40630  Biso   1.000  C
  C31      1.0000 0.71840  0.03990  0.37570  Biso   1.000  C
  C32      1.0000 0.74430  0.93490  0.43940  Biso   1.000  C
  O25      1.0000 0.06030  0.77310  0.09350  Biso   1.000  O
  O26      1.0000 0.03210  0.71480  0.06460  Biso   1.000  O
  O27      1.0000 0.15230  0.68410  0.90040  Biso   1.000  O
  C33      1.0000 0.09390  0.71330  0.99790  Biso   1.000  C
  C34      1.0000 0.09370  0.74440  0.03000  Biso   1.000  C
  C35      1.0000 0.12430  0.71840  0.96010  Biso   1.000  C
  C36      1.0000 0.06060  0.74430  0.06510  Biso   1.000  C
  O28      1.0000 0.56030  0.27310  0.59350  Biso   1.000  O
  O29      1.0000 0.53210  0.21480  0.56460  Biso   1.000  O
  O30      1.0000 0.65230  0.18410  0.40040  Biso   1.000  O
  C37      1.0000 0.59390  0.21330  0.49790  Biso   1.000  C
  C38      1.0000 0.59370  0.24440  0.53000  Biso   1.000  C
  C39      1.0000 0.62430  0.21840  0.46010  Biso   1.000  C
  C40      1.0000 0.56060  0.24430  0.56510  Biso   1.000  C
  O31      1.0000 0.56030  0.72690  0.90650  Biso   1.000  O
  O32      1.0000 0.53210  0.78520  0.93540  Biso   1.000  O
  O33      1.0000 0.65230  0.81590  0.09960  Biso   1.000  O
  C41      1.0000 0.59390  0.78670  0.00210  Biso   1.000  C
  C42      1.0000 0.59370  0.75560  0.97000  Biso   1.000  C
  C43      1.0000 0.62430  0.78160  0.03990  Biso   1.000  C
  C44      1.0000 0.56060  0.75570  0.93490  Biso   1.000  C
  O34      1.0000 0.06030  0.22690  0.40650  Biso   1.000  O
  O35      1.0000 0.03210  0.28520  0.43540  Biso   1.000  O
  O36      1.0000 0.15230  0.31590  0.59960  Biso   1.000  O
  C45      1.0000 0.09390  0.28670  0.50210  Biso   1.000  C
  C46      1.0000 0.09370  0.25560  0.47000  Biso   1.000  C
  C47      1.0000 0.12430  0.28160  0.53990  Biso   1.000  C
  C48      1.0000 0.06060  0.25570  0.43490  Biso   1.000  C
  O37      1.0000 0.43970  0.22690  0.59350  Biso   1.000  O
  O38      1.0000 0.46790  0.28520  0.56460  Biso   1.000  O
  O39      1.0000 0.34770  0.31590  0.40040  Biso   1.000  O
  C49      1.0000 0.40610  0.28670  0.49790  Biso   1.000  C
  C50      1.0000 0.40630  0.25560  0.53000  Biso   1.000  C
  C51      1.0000 0.37570  0.28160  0.46010  Biso   1.000  C
  C52      1.0000 0.43940  0.25570  0.56510  Biso   1.000  C
  O40      1.0000 0.93970  0.72690  0.09350  Biso   1.000  O
  O41      1.0000 0.96790  0.78520  0.06460  Biso   1.000  O
  O42      1.0000 0.84770  0.81590  0.90040  Biso   1.000  O
  C53      1.0000 0.90610  0.78670  0.99790  Biso   1.000  C
  C54      1.0000 0.90630  0.75560  0.03000  Biso   1.000  C
  C55      1.0000 0.87570  0.78160  0.96010  Biso   1.000  C
  C56      1.0000 0.93940  0.75570  0.06510  Biso   1.000  C
  O43      1.0000 0.93970  0.27310  0.40650  Biso   1.000  O
  O44      1.0000 0.96790  0.21480  0.43540  Biso   1.000  O
  O45      1.0000 0.84770  0.18410  0.59960  Biso   1.000  O
  C57      1.0000 0.90610  0.21330  0.50210  Biso   1.000  C
  C58      1.0000 0.90630  0.24440  0.47000  Biso   1.000  C
  C59      1.0000 0.87570  0.21840  0.53990  Biso   1.000  C
  C60      1.0000 0.93940  0.24430  0.43490  Biso   1.000  C
  O46      1.0000 0.43970  0.77310  0.90650  Biso   1.000  O
  O47      1.0000 0.46790  0.71480  0.93540  Biso   1.000  O
  O48      1.0000 0.34770  0.68410  0.09960  Biso   1.000  O
  C61      1.0000 0.40610  0.71330  0.00210  Biso   1.000  C
  C62      1.0000 0.40630  0.74440  0.97000  Biso   1.000  C
  C63      1.0000 0.37570  0.71840  0.03990  Biso   1.000  C
  C64      1.0000 0.43940  0.74430  0.93490  Biso   1.000  C
  O49      1.0000 0.09350  0.06030  0.77310  Biso   1.000  O
  O50      1.0000 0.06460  0.03210  0.71480  Biso   1.000  O
  O51      1.0000 0.90040  0.15230  0.68410  Biso   1.000  O
  C65      1.0000 0.99790  0.09390  0.71330  Biso   1.000  C
  C66      1.0000 0.03000  0.09370  0.74440  Biso   1.000  C
  C67      1.0000 0.96010  0.12430  0.71840  Biso   1.000  C
  C68      1.0000 0.06510  0.06060  0.74430  Biso   1.000  C
  O52      1.0000 0.59350  0.56030  0.27310  Biso   1.000  O
  O53      1.0000 0.56460  0.53210  0.21480  Biso   1.000  O
  O54      1.0000 0.40040  0.65230  0.18410  Biso   1.000  O
  C69      1.0000 0.49790  0.59390  0.21330  Biso   1.000  C
  C70      1.0000 0.53000  0.59370  0.24440  Biso   1.000  C
  C71      1.0000 0.46010  0.62430  0.21840  Biso   1.000  C
  C72      1.0000 0.56510  0.56060  0.24430  Biso   1.000  C
  O55      1.0000 0.90650  0.56030  0.72690  Biso   1.000  O
  O56      1.0000 0.93540  0.53210  0.78520  Biso   1.000  O
  O57      1.0000 0.09960  0.65230  0.81590  Biso   1.000  O
  C73      1.0000 0.00210  0.59390  0.78670  Biso   1.000  C
  C74      1.0000 0.97000  0.59370  0.75560  Biso   1.000  C
  C75      1.0000 0.03990  0.62430  0.78160  Biso   1.000  C
  C76      1.0000 0.93490  0.56060  0.75570  Biso   1.000  C
  O58      1.0000 0.40650  0.06030  0.22690  Biso   1.000  O
  O59      1.0000 0.43540  0.03210  0.28520  Biso   1.000  O
  O60      1.0000 0.59960  0.15230  0.31590  Biso   1.000  O
  C77      1.0000 0.50210  0.09390  0.28670  Biso   1.000  C
  C78      1.0000 0.47000  0.09370  0.25560  Biso   1.000  C
  C79      1.0000 0.53990  0.12430  0.28160  Biso   1.000  C
  C80      1.0000 0.43490  0.06060  0.25570  Biso   1.000  C
  O61      1.0000 0.59350  0.43970  0.22690  Biso   1.000  O
  O62      1.0000 0.56460  0.46790  0.28520  Biso   1.000  O
  O63      1.0000 0.40040  0.34770  0.31590  Biso   1.000  O
  C81      1.0000 0.49790  0.40610  0.28670  Biso   1.000  C
  C82      1.0000 0.53000  0.40630  0.25560  Biso   1.000  C
  C83      1.0000 0.46010  0.37570  0.28160  Biso   1.000  C
  C84      1.0000 0.56510  0.43940  0.25570  Biso   1.000  C
  O64      1.0000 0.09350  0.93970  0.72690  Biso   1.000  O
  O65      1.0000 0.06460  0.96790  0.78520  Biso   1.000  O
  O66      1.0000 0.90040  0.84770  0.81590  Biso   1.000  O
  C85      1.0000 0.99790  0.90610  0.78670  Biso   1.000  C
  C86      1.0000 0.03000  0.90630  0.75560  Biso   1.000  C
  C87      1.0000 0.96010  0.87570  0.78160  Biso   1.000  C
  C88      1.0000 0.06510  0.93940  0.75570  Biso   1.000  C
  O67      1.0000 0.40650  0.93970  0.27310  Biso   1.000  O
  O68      1.0000 0.43540  0.96790  0.21480  Biso   1.000  O
  O69      1.0000 0.59960  0.84770  0.18410  Biso   1.000  O
  C89      1.0000 0.50210  0.90610  0.21330  Biso   1.000  C
  C90      1.0000 0.47000  0.90630  0.24440  Biso   1.000  C
  C91      1.0000 0.53990  0.87570  0.21840  Biso   1.000  C
  C92      1.0000 0.43490  0.93940  0.24430  Biso   1.000  C
  O70      1.0000 0.90650  0.43970  0.77310  Biso   1.000  O
  O71      1.0000 0.93540  0.46790  0.71480  Biso   1.000  O
  O72      1.0000 0.09960  0.34770  0.68410  Biso   1.000  O
  C93      1.0000 0.00210  0.40610  0.71330  Biso   1.000  C
  C94      1.0000 0.97000  0.40630  0.74440  Biso   1.000  C
  C95      1.0000 0.03990  0.37570  0.71840  Biso   1.000  C
  C96      1.0000 0.93490  0.43940  0.74430  Biso   1.000  C
  O73      1.0000 0.84350  0.02310  0.18970  Biso   1.000  O
  O74      1.0000 0.81460  0.96480  0.21790  Biso   1.000  O
  O75      1.0000 0.65040  0.93410  0.09770  Biso   1.000  O
  C97      1.0000 0.74790  0.96330  0.15610  Biso   1.000  C
  C98      1.0000 0.78000  0.99440  0.15630  Biso   1.000  C
  C99      1.0000 0.71010  0.96840  0.12570  Biso   1.000  C
  C100     1.0000 0.81510  0.99430  0.18940  Biso   1.000  C
  O76      1.0000 0.34350  0.52310  0.68970  Biso   1.000  O
  O77      1.0000 0.31460  0.46480  0.71790  Biso   1.000  O
  O78      1.0000 0.15040  0.43410  0.59770  Biso   1.000  O
  C101     1.0000 0.24790  0.46330  0.65610  Biso   1.000  C
  C102     1.0000 0.28000  0.49440  0.65630  Biso   1.000  C
  C103     1.0000 0.21010  0.46840  0.62570  Biso   1.000  C
  C104     1.0000 0.31510  0.49430  0.68940  Biso   1.000  C
  O79      1.0000 0.65650  0.97690  0.68970  Biso   1.000  O
  O80      1.0000 0.68540  0.03520  0.71790  Biso   1.000  O
  O81      1.0000 0.84960  0.06590  0.59770  Biso   1.000  O
  C105     1.0000 0.75210  0.03670  0.65610  Biso   1.000  C
  C106     1.0000 0.72000  0.00560  0.65630  Biso   1.000  C
  C107     1.0000 0.78990  0.03160  0.62570  Biso   1.000  C
  C108     1.0000 0.68490  0.00570  0.68940  Biso   1.000  C
  O82      1.0000 0.15650  0.47690  0.18970  Biso   1.000  O
  O83      1.0000 0.18540  0.53520  0.21790  Biso   1.000  O
  O84      1.0000 0.34960  0.56590  0.09770  Biso   1.000  O
  C109     1.0000 0.25210  0.53670  0.15610  Biso   1.000  C
  C110     1.0000 0.22000  0.50560  0.15630  Biso   1.000  C
  C111     1.0000 0.28990  0.53160  0.12570  Biso   1.000  C
  C112     1.0000 0.18490  0.50570  0.18940  Biso   1.000  C
  O85      1.0000 0.34350  0.47690  0.81030  Biso   1.000  O
  O86      1.0000 0.31460  0.53520  0.78210  Biso   1.000  O
  O87      1.0000 0.15040  0.56590  0.90230  Biso   1.000  O
  C113     1.0000 0.24790  0.53670  0.84390  Biso   1.000  C
  C114     1.0000 0.28000  0.50560  0.84370  Biso   1.000  C
  C115     1.0000 0.21010  0.53160  0.87430  Biso   1.000  C
  C116     1.0000 0.31510  0.50570  0.81060  Biso   1.000  C
  O88      1.0000 0.84350  0.97690  0.31030  Biso   1.000  O
  O89      1.0000 0.81460  0.03520  0.28210  Biso   1.000  O
  O90      1.0000 0.65040  0.06590  0.40230  Biso   1.000  O
  C117     1.0000 0.74790  0.03670  0.34390  Biso   1.000  C
  C118     1.0000 0.78000  0.00560  0.34370  Biso   1.000  C
  C119     1.0000 0.71010  0.03160  0.37430  Biso   1.000  C
  C120     1.0000 0.81510  0.00570  0.31060  Biso   1.000  C
  O91      1.0000 0.15650  0.52310  0.31030  Biso   1.000  O
  O92      1.0000 0.18540  0.46480  0.28210  Biso   1.000  O
  O93      1.0000 0.34960  0.43410  0.40230  Biso   1.000  O
  C121     1.0000 0.25210  0.46330  0.34390  Biso   1.000  C
  C122     1.0000 0.22000  0.49440  0.34370  Biso   1.000  C
  C123     1.0000 0.28990  0.46840  0.37430  Biso   1.000  C
  C124     1.0000 0.18490  0.49430  0.31060  Biso   1.000  C
  O94      1.0000 0.65650  0.02310  0.81030  Biso   1.000  O
  O95      1.0000 0.68540  0.96480  0.78210  Biso   1.000  O
  O96      1.0000 0.84960  0.93410  0.90230  Biso   1.000  O
  C125     1.0000 0.75210  0.96330  0.84390  Biso   1.000  C
  C126     1.0000 0.72000  0.99440  0.84370  Biso   1.000  C
  C127     1.0000 0.78990  0.96840  0.87430  Biso   1.000  C
  C128     1.0000 0.68490  0.99430  0.81060  Biso   1.000  C
  O97      1.0000 0.52310  0.31030  0.15650  Biso   1.000  O
  O98      1.0000 0.46480  0.28210  0.18540  Biso   1.000  O
  O99      1.0000 0.43410  0.40230  0.34960  Biso   1.000  O
  C129     1.0000 0.46330  0.34390  0.25210  Biso   1.000  C
  C130     1.0000 0.49440  0.34370  0.22000  Biso   1.000  C
  C131     1.0000 0.46840  0.37430  0.28990  Biso   1.000  C
  C132     1.0000 0.49430  0.31060  0.18490  Biso   1.000  C
  O100     1.0000 0.02310  0.81030  0.65650  Biso   1.000  O
  O101     1.0000 0.96480  0.78210  0.68540  Biso   1.000  O
  O102     1.0000 0.93410  0.90230  0.84960  Biso   1.000  O
  C133     1.0000 0.96330  0.84390  0.75210  Biso   1.000  C
  C134     1.0000 0.99440  0.84370  0.72000  Biso   1.000  C
  C135     1.0000 0.96840  0.87430  0.78990  Biso   1.000  C
  C136     1.0000 0.99430  0.81060  0.68490  Biso   1.000  C
  O103     1.0000 0.47690  0.81030  0.34350  Biso   1.000  O
  O104     1.0000 0.53520  0.78210  0.31460  Biso   1.000  O
  O105     1.0000 0.56590  0.90230  0.15040  Biso   1.000  O
  C137     1.0000 0.53670  0.84390  0.24790  Biso   1.000  C
  C138     1.0000 0.50560  0.84370  0.28000  Biso   1.000  C
  C139     1.0000 0.53160  0.87430  0.21010  Biso   1.000  C
  C140     1.0000 0.50570  0.81060  0.31510  Biso   1.000  C
  O106     1.0000 0.97690  0.31030  0.84350  Biso   1.000  O
  O107     1.0000 0.03520  0.28210  0.81460  Biso   1.000  O
  O108     1.0000 0.06590  0.40230  0.65040  Biso   1.000  O
  C141     1.0000 0.03670  0.34390  0.74790  Biso   1.000  C
  C142     1.0000 0.00560  0.34370  0.78000  Biso   1.000  C
  C143     1.0000 0.03160  0.37430  0.71010  Biso   1.000  C
  C144     1.0000 0.00570  0.31060  0.81510  Biso   1.000  C
  O109     1.0000 0.97690  0.68970  0.65650  Biso   1.000  O
  O110     1.0000 0.03520  0.71790  0.68540  Biso   1.000  O
  O111     1.0000 0.06590  0.59770  0.84960  Biso   1.000  O
  C145     1.0000 0.03670  0.65610  0.75210  Biso   1.000  C
  C146     1.0000 0.00560  0.65630  0.72000  Biso   1.000  C
  C147     1.0000 0.03160  0.62570  0.78990  Biso   1.000  C
  C148     1.0000 0.00570  0.68940  0.68490  Biso   1.000  C
  O112     1.0000 0.47690  0.18970  0.15650  Biso   1.000  O
  O113     1.0000 0.53520  0.21790  0.18540  Biso   1.000  O
  O114     1.0000 0.56590  0.09770  0.34960  Biso   1.000  O
  C149     1.0000 0.53670  0.15610  0.25210  Biso   1.000  C
  C150     1.0000 0.50560  0.15630  0.22000  Biso   1.000  C
  C151     1.0000 0.53160  0.12570  0.28990  Biso   1.000  C
  C152     1.0000 0.50570  0.18940  0.18490  Biso   1.000  C
  O115     1.0000 0.02310  0.18970  0.84350  Biso   1.000  O
  O116     1.0000 0.96480  0.21790  0.81460  Biso   1.000  O
  O117     1.0000 0.93410  0.09770  0.65040  Biso   1.000  O
  C153     1.0000 0.96330  0.15610  0.74790  Biso   1.000  C
  C154     1.0000 0.99440  0.15630  0.78000  Biso   1.000  C
  C155     1.0000 0.96840  0.12570  0.71010  Biso   1.000  C
  C156     1.0000 0.99430  0.18940  0.81510  Biso   1.000  C
  O118     1.0000 0.52310  0.68970  0.34350  Biso   1.000  O
  O119     1.0000 0.46480  0.71790  0.31460  Biso   1.000  O
  O120     1.0000 0.43410  0.59770  0.15040  Biso   1.000  O
  C157     1.0000 0.46330  0.65610  0.24790  Biso   1.000  C
  C158     1.0000 0.49440  0.65630  0.28000  Biso   1.000  C
  C159     1.0000 0.46840  0.62570  0.21010  Biso   1.000  C
  C160     1.0000 0.49430  0.68940  0.31510  Biso   1.000  C
  O121     1.0000 0.81030  0.34350  0.47690  Biso   1.000  O
  O122     1.0000 0.78210  0.31460  0.53520  Biso   1.000  O
  O123     1.0000 0.90230  0.15040  0.56590  Biso   1.000  O
  C161     1.0000 0.84390  0.24790  0.53670  Biso   1.000  C
  C162     1.0000 0.84370  0.28000  0.50560  Biso   1.000  C
  C163     1.0000 0.87430  0.21010  0.53160  Biso   1.000  C
  C164     1.0000 0.81060  0.31510  0.50570  Biso   1.000  C
  O124     1.0000 0.31030  0.84350  0.97690  Biso   1.000  O
  O125     1.0000 0.28210  0.81460  0.03520  Biso   1.000  O
  O126     1.0000 0.40230  0.65040  0.06590  Biso   1.000  O
  C165     1.0000 0.34390  0.74790  0.03670  Biso   1.000  C
  C166     1.0000 0.34370  0.78000  0.00560  Biso   1.000  C
  C167     1.0000 0.37430  0.71010  0.03160  Biso   1.000  C
  C168     1.0000 0.31060  0.81510  0.00570  Biso   1.000  C
  O127     1.0000 0.31030  0.15650  0.52310  Biso   1.000  O
  O128     1.0000 0.28210  0.18540  0.46480  Biso   1.000  O
  O129     1.0000 0.40230  0.34960  0.43410  Biso   1.000  O
  C169     1.0000 0.34390  0.25210  0.46330  Biso   1.000  C
  C170     1.0000 0.34370  0.22000  0.49440  Biso   1.000  C
  C171     1.0000 0.37430  0.28990  0.46840  Biso   1.000  C
  C172     1.0000 0.31060  0.18490  0.49430  Biso   1.000  C
  O130     1.0000 0.81030  0.65650  0.02310  Biso   1.000  O
  O131     1.0000 0.78210  0.68540  0.96480  Biso   1.000  O
  O132     1.0000 0.90230  0.84960  0.93410  Biso   1.000  O
  C173     1.0000 0.84390  0.75210  0.96330  Biso   1.000  C
  C174     1.0000 0.84370  0.72000  0.99440  Biso   1.000  C
  C175     1.0000 0.87430  0.78990  0.96840  Biso   1.000  C
  C176     1.0000 0.81060  0.68490  0.99430  Biso   1.000  C
  O133     1.0000 0.18970  0.84350  0.02310  Biso   1.000  O
  O134     1.0000 0.21790  0.81460  0.96480  Biso   1.000  O
  O135     1.0000 0.09770  0.65040  0.93410  Biso   1.000  O
  C177     1.0000 0.15610  0.74790  0.96330  Biso   1.000  C
  C178     1.0000 0.15630  0.78000  0.99440  Biso   1.000  C
  C179     1.0000 0.12570  0.71010  0.96840  Biso   1.000  C
  C180     1.0000 0.18940  0.81510  0.99430  Biso   1.000  C
  O136     1.0000 0.68970  0.34350  0.52310  Biso   1.000  O
  O137     1.0000 0.71790  0.31460  0.46480  Biso   1.000  O
  O138     1.0000 0.59770  0.15040  0.43410  Biso   1.000  O
  C181     1.0000 0.65610  0.24790  0.46330  Biso   1.000  C
  C182     1.0000 0.65630  0.28000  0.49440  Biso   1.000  C
  C183     1.0000 0.62570  0.21010  0.46840  Biso   1.000  C
  C184     1.0000 0.68940  0.31510  0.49430  Biso   1.000  C
  O139     1.0000 0.68970  0.65650  0.97690  Biso   1.000  O
  O140     1.0000 0.71790  0.68540  0.03520  Biso   1.000  O
  O141     1.0000 0.59770  0.84960  0.06590  Biso   1.000  O
  C185     1.0000 0.65610  0.75210  0.03670  Biso   1.000  C
  C186     1.0000 0.65630  0.72000  0.00560  Biso   1.000  C
  C187     1.0000 0.62570  0.78990  0.03160  Biso   1.000  C
  C188     1.0000 0.68940  0.68490  0.00570  Biso   1.000  C
  O142     1.0000 0.18970  0.15650  0.47690  Biso   1.000  O
  O143     1.0000 0.21790  0.18540  0.53520  Biso   1.000  O
  O144     1.0000 0.09770  0.34960  0.56590  Biso   1.000  O
  C189     1.0000 0.15610  0.25210  0.53670  Biso   1.000  C
  C190     1.0000 0.15630  0.22000  0.50560  Biso   1.000  C
  C191     1.0000 0.12570  0.28990  0.53160  Biso   1.000  C
  C192     1.0000 0.18940  0.18490  0.50570  Biso   1.000  C
  O145     1.0000 0.22690  0.90650  0.93970  Biso   1.000  O
  O146     1.0000 0.28520  0.93540  0.96790  Biso   1.000  O
  O147     1.0000 0.31590  0.09960  0.84770  Biso   1.000  O
  C193     1.0000 0.28670  0.00210  0.90610  Biso   1.000  C
  C194     1.0000 0.25560  0.97000  0.90630  Biso   1.000  C
  C195     1.0000 0.28160  0.03990  0.87570  Biso   1.000  C
  C196     1.0000 0.25570  0.93490  0.93940  Biso   1.000  C
  O148     1.0000 0.72690  0.40650  0.43970  Biso   1.000  O
  O149     1.0000 0.78520  0.43540  0.46790  Biso   1.000  O
  O150     1.0000 0.81590  0.59960  0.34770  Biso   1.000  O
  C197     1.0000 0.78670  0.50210  0.40610  Biso   1.000  C
  C198     1.0000 0.75560  0.47000  0.40630  Biso   1.000  C
  C199     1.0000 0.78160  0.53990  0.37570  Biso   1.000  C
  C200     1.0000 0.75570  0.43490  0.43940  Biso   1.000  C
  O151     1.0000 0.27310  0.09350  0.43970  Biso   1.000  O
  O152     1.0000 0.21480  0.06460  0.46790  Biso   1.000  O
  O153     1.0000 0.18410  0.90040  0.34770  Biso   1.000  O
  C201     1.0000 0.21330  0.99790  0.40610  Biso   1.000  C
  C202     1.0000 0.24440  0.03000  0.40630  Biso   1.000  C
  C203     1.0000 0.21840  0.96010  0.37570  Biso   1.000  C
  C204     1.0000 0.24430  0.06510  0.43940  Biso   1.000  C
  O154     1.0000 0.77310  0.59350  0.93970  Biso   1.000  O
  O155     1.0000 0.71480  0.56460  0.96790  Biso   1.000  O
  O156     1.0000 0.68410  0.40040  0.84770  Biso   1.000  O
  C205     1.0000 0.71330  0.49790  0.90610  Biso   1.000  C
  C206     1.0000 0.74440  0.53000  0.90630  Biso   1.000  C
  C207     1.0000 0.71840  0.46010  0.87570  Biso   1.000  C
  C208     1.0000 0.74430  0.56510  0.93940  Biso   1.000  C
  O157     1.0000 0.77310  0.40650  0.56030  Biso   1.000  O
  O158     1.0000 0.71480  0.43540  0.53210  Biso   1.000  O
  O159     1.0000 0.68410  0.59960  0.65230  Biso   1.000  O
  C209     1.0000 0.71330  0.50210  0.59390  Biso   1.000  C
  C210     1.0000 0.74440  0.47000  0.59370  Biso   1.000  C
  C211     1.0000 0.71840  0.53990  0.62430  Biso   1.000  C
  C212     1.0000 0.74430  0.43490  0.56060  Biso   1.000  C
  O160     1.0000 0.27310  0.90650  0.06030  Biso   1.000  O
  O161     1.0000 0.21480  0.93540  0.03210  Biso   1.000  O
  O162     1.0000 0.18410  0.09960  0.15230  Biso   1.000  O
  C213     1.0000 0.21330  0.00210  0.09390  Biso   1.000  C
  C214     1.0000 0.24440  0.97000  0.09370  Biso   1.000  C
  C215     1.0000 0.21840  0.03990  0.12430  Biso   1.000  C
  C216     1.0000 0.24430  0.93490  0.06060  Biso   1.000  C
  O163     1.0000 0.72690  0.59350  0.06030  Biso   1.000  O
  O164     1.0000 0.78520  0.56460  0.03210  Biso   1.000  O
  O165     1.0000 0.81590  0.40040  0.15230  Biso   1.000  O
  C217     1.0000 0.78670  0.49790  0.09390  Biso   1.000  C
  C218     1.0000 0.75560  0.53000  0.09370  Biso   1.000  C
  C219     1.0000 0.78160  0.46010  0.12430  Biso   1.000  C
  C220     1.0000 0.75570  0.56510  0.06060  Biso   1.000  C
  O166     1.0000 0.22690  0.09350  0.56030  Biso   1.000  O
  O167     1.0000 0.28520  0.06460  0.53210  Biso   1.000  O
  O168     1.0000 0.31590  0.90040  0.65230  Biso   1.000  O
  C221     1.0000 0.28670  0.99790  0.59390  Biso   1.000  C
  C222     1.0000 0.25560  0.03000  0.59370  Biso   1.000  C
  C223     1.0000 0.28160  0.96010  0.62430  Biso   1.000  C
  C224     1.0000 0.25570  0.06510  0.56060  Biso   1.000  C
  O169     1.0000 0.93970  0.22690  0.90650  Biso   1.000  O
  O170     1.0000 0.96790  0.28520  0.93540  Biso   1.000  O
  O171     1.0000 0.84770  0.31590  0.09960  Biso   1.000  O
  C225     1.0000 0.90610  0.28670  0.00210  Biso   1.000  C
  C226     1.0000 0.90630  0.25560  0.97000  Biso   1.000  C
  C227     1.0000 0.87570  0.28160  0.03990  Biso   1.000  C
  C228     1.0000 0.93940  0.25570  0.93490  Biso   1.000  C
  O172     1.0000 0.43970  0.72690  0.40650  Biso   1.000  O
  O173     1.0000 0.46790  0.78520  0.43540  Biso   1.000  O
  O174     1.0000 0.34770  0.81590  0.59960  Biso   1.000  O
  C229     1.0000 0.40610  0.78670  0.50210  Biso   1.000  C
  C230     1.0000 0.40630  0.75560  0.47000  Biso   1.000  C
  C231     1.0000 0.37570  0.78160  0.53990  Biso   1.000  C
  C232     1.0000 0.43940  0.75570  0.43490  Biso   1.000  C
  O175     1.0000 0.43970  0.27310  0.09350  Biso   1.000  O
  O176     1.0000 0.46790  0.21480  0.06460  Biso   1.000  O
  O177     1.0000 0.34770  0.18410  0.90040  Biso   1.000  O
  C233     1.0000 0.40610  0.21330  0.99790  Biso   1.000  C
  C234     1.0000 0.40630  0.24440  0.03000  Biso   1.000  C
  C235     1.0000 0.37570  0.21840  0.96010  Biso   1.000  C
  C236     1.0000 0.43940  0.24430  0.06510  Biso   1.000  C
  O178     1.0000 0.93970  0.77310  0.59350  Biso   1.000  O
  O179     1.0000 0.96790  0.71480  0.56460  Biso   1.000  O
  O180     1.0000 0.84770  0.68410  0.40040  Biso   1.000  O
  C237     1.0000 0.90610  0.71330  0.49790  Biso   1.000  C
  C238     1.0000 0.90630  0.74440  0.53000  Biso   1.000  C
  C239     1.0000 0.87570  0.71840  0.46010  Biso   1.000  C
  C240     1.0000 0.93940  0.74430  0.56510  Biso   1.000  C
  O181     1.0000 0.56030  0.77310  0.40650  Biso   1.000  O
  O182     1.0000 0.53210  0.71480  0.43540  Biso   1.000  O
  O183     1.0000 0.65230  0.68410  0.59960  Biso   1.000  O
  C241     1.0000 0.59390  0.71330  0.50210  Biso   1.000  C
  C242     1.0000 0.59370  0.74440  0.47000  Biso   1.000  C
  C243     1.0000 0.62430  0.71840  0.53990  Biso   1.000  C
  C244     1.0000 0.56060  0.74430  0.43490  Biso   1.000  C
  O184     1.0000 0.06030  0.27310  0.90650  Biso   1.000  O
  O185     1.0000 0.03210  0.21480  0.93540  Biso   1.000  O
  O186     1.0000 0.15230  0.18410  0.09960  Biso   1.000  O
  C245     1.0000 0.09390  0.21330  0.00210  Biso   1.000  C
  C246     1.0000 0.09370  0.24440  0.97000  Biso   1.000  C
  C247     1.0000 0.12430  0.21840  0.03990  Biso   1.000  C
  C248     1.0000 0.06060  0.24430  0.93490  Biso   1.000  C
  O187     1.0000 0.06030  0.72690  0.59350  Biso   1.000  O
  O188     1.0000 0.03210  0.78520  0.56460  Biso   1.000  O
  O189     1.0000 0.15230  0.81590  0.40040  Biso   1.000  O
  C249     1.0000 0.09390  0.78670  0.49790  Biso   1.000  C
  C250     1.0000 0.09370  0.75560  0.53000  Biso   1.000  C
  C251     1.0000 0.12430  0.78160  0.46010  Biso   1.000  C
  C252     1.0000 0.06060  0.75570  0.56510  Biso   1.000  C
  O190     1.0000 0.56030  0.22690  0.09350  Biso   1.000  O
  O191     1.0000 0.53210  0.28520  0.06460  Biso   1.000  O
  O192     1.0000 0.65230  0.31590  0.90040  Biso   1.000  O
  C253     1.0000 0.59390  0.28670  0.99790  Biso   1.000  C
  C254     1.0000 0.59370  0.25560  0.03000  Biso   1.000  C
  C255     1.0000 0.62430  0.28160  0.96010  Biso   1.000  C
  C256     1.0000 0.56060  0.25570  0.06510  Biso   1.000  C
  O193     1.0000 0.90650  0.93970  0.22690  Biso   1.000  O
  O194     1.0000 0.93540  0.96790  0.28520  Biso   1.000  O
  O195     1.0000 0.09960  0.84770  0.31590  Biso   1.000  O
  C257     1.0000 0.00210  0.90610  0.28670  Biso   1.000  C
  C258     1.0000 0.97000  0.90630  0.25560  Biso   1.000  C
  C259     1.0000 0.03990  0.87570  0.28160  Biso   1.000  C
  C260     1.0000 0.93490  0.93940  0.25570  Biso   1.000  C
  O196     1.0000 0.40650  0.43970  0.72690  Biso   1.000  O
  O197     1.0000 0.43540  0.46790  0.78520  Biso   1.000  O
  O198     1.0000 0.59960  0.34770  0.81590  Biso   1.000  O
  C261     1.0000 0.50210  0.40610  0.78670  Biso   1.000  C
  C262     1.0000 0.47000  0.40630  0.75560  Biso   1.000  C
  C263     1.0000 0.53990  0.37570  0.78160  Biso   1.000  C
  C264     1.0000 0.43490  0.43940  0.75570  Biso   1.000  C
  O199     1.0000 0.09350  0.43970  0.27310  Biso   1.000  O
  O200     1.0000 0.06460  0.46790  0.21480  Biso   1.000  O
  O201     1.0000 0.90040  0.34770  0.18410  Biso   1.000  O
  C265     1.0000 0.99790  0.40610  0.21330  Biso   1.000  C
  C266     1.0000 0.03000  0.40630  0.24440  Biso   1.000  C
  C267     1.0000 0.96010  0.37570  0.21840  Biso   1.000  C
  C268     1.0000 0.06510  0.43940  0.24430  Biso   1.000  C
  O202     1.0000 0.59350  0.93970  0.77310  Biso   1.000  O
  O203     1.0000 0.56460  0.96790  0.71480  Biso   1.000  O
  O204     1.0000 0.40040  0.84770  0.68410  Biso   1.000  O
  C269     1.0000 0.49790  0.90610  0.71330  Biso   1.000  C
  C270     1.0000 0.53000  0.90630  0.74440  Biso   1.000  C
  C271     1.0000 0.46010  0.87570  0.71840  Biso   1.000  C
  C272     1.0000 0.56510  0.93940  0.74430  Biso   1.000  C
  O205     1.0000 0.40650  0.56030  0.77310  Biso   1.000  O
  O206     1.0000 0.43540  0.53210  0.71480  Biso   1.000  O
  O207     1.0000 0.59960  0.65230  0.68410  Biso   1.000  O
  C273     1.0000 0.50210  0.59390  0.71330  Biso   1.000  C
  C274     1.0000 0.47000  0.59370  0.74440  Biso   1.000  C
  C275     1.0000 0.53990  0.62430  0.71840  Biso   1.000  C
  C276     1.0000 0.43490  0.56060  0.74430  Biso   1.000  C
  O208     1.0000 0.90650  0.06030  0.27310  Biso   1.000  O
  O209     1.0000 0.93540  0.03210  0.21480  Biso   1.000  O
  O210     1.0000 0.09960  0.15230  0.18410  Biso   1.000  O
  C277     1.0000 0.00210  0.09390  0.21330  Biso   1.000  C
  C278     1.0000 0.97000  0.09370  0.24440  Biso   1.000  C
  C279     1.0000 0.03990  0.12430  0.21840  Biso   1.000  C
  C280     1.0000 0.93490  0.06060  0.24430  Biso   1.000  C
  O211     1.0000 0.59350  0.06030  0.72690  Biso   1.000  O
  O212     1.0000 0.56460  0.03210  0.78520  Biso   1.000  O
  O213     1.0000 0.40040  0.15230  0.81590  Biso   1.000  O
  C281     1.0000 0.49790  0.09390  0.78670  Biso   1.000  C
  C282     1.0000 0.53000  0.09370  0.75560  Biso   1.000  C
  C283     1.0000 0.46010  0.12430  0.78160  Biso   1.000  C
  C284     1.0000 0.56510  0.06060  0.75570  Biso   1.000  C
  O214     1.0000 0.09350  0.56030  0.22690  Biso   1.000  O
  O215     1.0000 0.06460  0.53210  0.28520  Biso   1.000  O
  O216     1.0000 0.90040  0.65230  0.31590  Biso   1.000  O
  C285     1.0000 0.99790  0.59390  0.28670  Biso   1.000  C
  C286     1.0000 0.03000  0.59370  0.25560  Biso   1.000  C
  C287     1.0000 0.96010  0.62430  0.28160  Biso   1.000  C
  C288     1.0000 0.06510  0.56060  0.25570  Biso   1.000  C
  O217     1.0000 0.15650  0.97690  0.81030  Biso   1.000  O
  O218     1.0000 0.18540  0.03520  0.78210  Biso   1.000  O
  O219     1.0000 0.34960  0.06590  0.90230  Biso   1.000  O
  C289     1.0000 0.25210  0.03670  0.84390  Biso   1.000  C
  C290     1.0000 0.22000  0.00560  0.84370  Biso   1.000  C
  C291     1.0000 0.28990  0.03160  0.87430  Biso   1.000  C
  C292     1.0000 0.18490  0.00570  0.81060  Biso   1.000  C
  O220     1.0000 0.65650  0.47690  0.31030  Biso   1.000  O
  O221     1.0000 0.68540  0.53520  0.28210  Biso   1.000  O
  O222     1.0000 0.84960  0.56590  0.40230  Biso   1.000  O
  C293     1.0000 0.75210  0.53670  0.34390  Biso   1.000  C
  C294     1.0000 0.72000  0.50560  0.34370  Biso   1.000  C
  C295     1.0000 0.78990  0.53160  0.37430  Biso   1.000  C
  C296     1.0000 0.68490  0.50570  0.31060  Biso   1.000  C
  O223     1.0000 0.34350  0.02310  0.31030  Biso   1.000  O
  O224     1.0000 0.31460  0.96480  0.28210  Biso   1.000  O
  O225     1.0000 0.15040  0.93410  0.40230  Biso   1.000  O
  C297     1.0000 0.24790  0.96330  0.34390  Biso   1.000  C
  C298     1.0000 0.28000  0.99440  0.34370  Biso   1.000  C
  C299     1.0000 0.21010  0.96840  0.37430  Biso   1.000  C
  C300     1.0000 0.31510  0.99430  0.31060  Biso   1.000  C
  O226     1.0000 0.84350  0.52310  0.81030  Biso   1.000  O
  O227     1.0000 0.81460  0.46480  0.78210  Biso   1.000  O
  O228     1.0000 0.65040  0.43410  0.90230  Biso   1.000  O
  C301     1.0000 0.74790  0.46330  0.84390  Biso   1.000  C
  C302     1.0000 0.78000  0.49440  0.84370  Biso   1.000  C
  C303     1.0000 0.71010  0.46840  0.87430  Biso   1.000  C
  C304     1.0000 0.81510  0.49430  0.81060  Biso   1.000  C
  O229     1.0000 0.65650  0.52310  0.18970  Biso   1.000  O
  O230     1.0000 0.68540  0.46480  0.21790  Biso   1.000  O
  O231     1.0000 0.84960  0.43410  0.09770  Biso   1.000  O
  C305     1.0000 0.75210  0.46330  0.15610  Biso   1.000  C
  C306     1.0000 0.72000  0.49440  0.15630  Biso   1.000  C
  C307     1.0000 0.78990  0.46840  0.12570  Biso   1.000  C
  C308     1.0000 0.68490  0.49430  0.18940  Biso   1.000  C
  O232     1.0000 0.15650  0.02310  0.68970  Biso   1.000  O
  O233     1.0000 0.18540  0.96480  0.71790  Biso   1.000  O
  O234     1.0000 0.34960  0.93410  0.59770  Biso   1.000  O
  C309     1.0000 0.25210  0.96330  0.65610  Biso   1.000  C
  C310     1.0000 0.22000  0.99440  0.65630  Biso   1.000  C
  C311     1.0000 0.28990  0.96840  0.62570  Biso   1.000  C
  C312     1.0000 0.18490  0.99430  0.68940  Biso   1.000  C
  O235     1.0000 0.84350  0.47690  0.68970  Biso   1.000  O
  O236     1.0000 0.81460  0.53520  0.71790  Biso   1.000  O
  O237     1.0000 0.65040  0.56590  0.59770  Biso   1.000  O
  C313     1.0000 0.74790  0.53670  0.65610  Biso   1.000  C
  C314     1.0000 0.78000  0.50560  0.65630  Biso   1.000  C
  C315     1.0000 0.71010  0.53160  0.62570  Biso   1.000  C
  C316     1.0000 0.81510  0.50570  0.68940  Biso   1.000  C
  O238     1.0000 0.34350  0.97690  0.18970  Biso   1.000  O
  O239     1.0000 0.31460  0.03520  0.21790  Biso   1.000  O
  O240     1.0000 0.15040  0.06590  0.09770  Biso   1.000  O
  C317     1.0000 0.24790  0.03670  0.15610  Biso   1.000  C
  C318     1.0000 0.28000  0.00560  0.15630  Biso   1.000  C
  C319     1.0000 0.21010  0.03160  0.12570  Biso   1.000  C
  C320     1.0000 0.31510  0.00570  0.18940  Biso   1.000  C
  O241     1.0000 0.47690  0.68970  0.84350  Biso   1.000  O
  O242     1.0000 0.53520  0.71790  0.81460  Biso   1.000  O
  O243     1.0000 0.56590  0.59770  0.65040  Biso   1.000  O
  C321     1.0000 0.53670  0.65610  0.74790  Biso   1.000  C
  C322     1.0000 0.50560  0.65630  0.78000  Biso   1.000  C
  C323     1.0000 0.53160  0.62570  0.71010  Biso   1.000  C
  C324     1.0000 0.50570  0.68940  0.81510  Biso   1.000  C
  O244     1.0000 0.97690  0.18970  0.34350  Biso   1.000  O
  O245     1.0000 0.03520  0.21790  0.31460  Biso   1.000  O
  O246     1.0000 0.06590  0.09770  0.15040  Biso   1.000  O
  C325     1.0000 0.03670  0.15610  0.24790  Biso   1.000  C
  C326     1.0000 0.00560  0.15630  0.28000  Biso   1.000  C
  C327     1.0000 0.03160  0.12570  0.21010  Biso   1.000  C
  C328     1.0000 0.00570  0.18940  0.31510  Biso   1.000  C
  O247     1.0000 0.52310  0.18970  0.65650  Biso   1.000  O
  O248     1.0000 0.46480  0.21790  0.68540  Biso   1.000  O
  O249     1.0000 0.43410  0.09770  0.84960  Biso   1.000  O
  C329     1.0000 0.46330  0.15610  0.75210  Biso   1.000  C
  C330     1.0000 0.49440  0.15630  0.72000  Biso   1.000  C
  C331     1.0000 0.46840  0.12570  0.78990  Biso   1.000  C
  C332     1.0000 0.49430  0.18940  0.68490  Biso   1.000  C
  O250     1.0000 0.02310  0.68970  0.15650  Biso   1.000  O
  O251     1.0000 0.96480  0.71790  0.18540  Biso   1.000  O
  O252     1.0000 0.93410  0.59770  0.34960  Biso   1.000  O
  C333     1.0000 0.96330  0.65610  0.25210  Biso   1.000  C
  C334     1.0000 0.99440  0.65630  0.22000  Biso   1.000  C
  C335     1.0000 0.96840  0.62570  0.28990  Biso   1.000  C
  C336     1.0000 0.99430  0.68940  0.18490  Biso   1.000  C
  O253     1.0000 0.02310  0.31030  0.34350  Biso   1.000  O
  O254     1.0000 0.96480  0.28210  0.31460  Biso   1.000  O
  O255     1.0000 0.93410  0.40230  0.15040  Biso   1.000  O
  C337     1.0000 0.96330  0.34390  0.24790  Biso   1.000  C
  C338     1.0000 0.99440  0.34370  0.28000  Biso   1.000  C
  C339     1.0000 0.96840  0.37430  0.21010  Biso   1.000  C
  C340     1.0000 0.99430  0.31060  0.31510  Biso   1.000  C
  O256     1.0000 0.52310  0.81030  0.84350  Biso   1.000  O
  O257     1.0000 0.46480  0.78210  0.81460  Biso   1.000  O
  O258     1.0000 0.43410  0.90230  0.65040  Biso   1.000  O
  C341     1.0000 0.46330  0.84390  0.74790  Biso   1.000  C
  C342     1.0000 0.49440  0.84370  0.78000  Biso   1.000  C
  C343     1.0000 0.46840  0.87430  0.71010  Biso   1.000  C
  C344     1.0000 0.49430  0.81060  0.81510  Biso   1.000  C
  O259     1.0000 0.97690  0.81030  0.15650  Biso   1.000  O
  O260     1.0000 0.03520  0.78210  0.18540  Biso   1.000  O
  O261     1.0000 0.06590  0.90230  0.34960  Biso   1.000  O
  C345     1.0000 0.03670  0.84390  0.25210  Biso   1.000  C
  C346     1.0000 0.00560  0.84370  0.22000  Biso   1.000  C
  C347     1.0000 0.03160  0.87430  0.28990  Biso   1.000  C
  C348     1.0000 0.00570  0.81060  0.18490  Biso   1.000  C
  O262     1.0000 0.47690  0.31030  0.65650  Biso   1.000  O
  O263     1.0000 0.53520  0.28210  0.68540  Biso   1.000  O
  O264     1.0000 0.56590  0.40230  0.84960  Biso   1.000  O
  C349     1.0000 0.53670  0.34390  0.75210  Biso   1.000  C
  C350     1.0000 0.50560  0.34370  0.72000  Biso   1.000  C
  C351     1.0000 0.53160  0.37430  0.78990  Biso   1.000  C
  C352     1.0000 0.50570  0.31060  0.68490  Biso   1.000  C
  O265     1.0000 0.18970  0.65650  0.52310  Biso   1.000  O
  O266     1.0000 0.21790  0.68540  0.46480  Biso   1.000  O
  O267     1.0000 0.09770  0.84960  0.43410  Biso   1.000  O
  C353     1.0000 0.15610  0.75210  0.46330  Biso   1.000  C
  C354     1.0000 0.15630  0.72000  0.49440  Biso   1.000  C
  C355     1.0000 0.12570  0.78990  0.46840  Biso   1.000  C
  C356     1.0000 0.18940  0.68490  0.49430  Biso   1.000  C
  O268     1.0000 0.68970  0.15650  0.02310  Biso   1.000  O
  O269     1.0000 0.71790  0.18540  0.96480  Biso   1.000  O
  O270     1.0000 0.59770  0.34960  0.93410  Biso   1.000  O
  C357     1.0000 0.65610  0.25210  0.96330  Biso   1.000  C
  C358     1.0000 0.65630  0.22000  0.99440  Biso   1.000  C
  C359     1.0000 0.62570  0.28990  0.96840  Biso   1.000  C
  C360     1.0000 0.68940  0.18490  0.99430  Biso   1.000  C
  O271     1.0000 0.68970  0.84350  0.47690  Biso   1.000  O
  O272     1.0000 0.71790  0.81460  0.53520  Biso   1.000  O
  O273     1.0000 0.59770  0.65040  0.56590  Biso   1.000  O
  C361     1.0000 0.65610  0.74790  0.53670  Biso   1.000  C
  C362     1.0000 0.65630  0.78000  0.50560  Biso   1.000  C
  C363     1.0000 0.62570  0.71010  0.53160  Biso   1.000  C
  C364     1.0000 0.68940  0.81510  0.50570  Biso   1.000  C
  O274     1.0000 0.18970  0.34350  0.97690  Biso   1.000  O
  O275     1.0000 0.21790  0.31460  0.03520  Biso   1.000  O
  O276     1.0000 0.09770  0.15040  0.06590  Biso   1.000  O
  C365     1.0000 0.15610  0.24790  0.03670  Biso   1.000  C
  C366     1.0000 0.15630  0.28000  0.00560  Biso   1.000  C
  C367     1.0000 0.12570  0.21010  0.03160  Biso   1.000  C
  C368     1.0000 0.18940  0.31510  0.00570  Biso   1.000  C
  O277     1.0000 0.81030  0.15650  0.97690  Biso   1.000  O
  O278     1.0000 0.78210  0.18540  0.03520  Biso   1.000  O
  O279     1.0000 0.90230  0.34960  0.06590  Biso   1.000  O
  C369     1.0000 0.84390  0.25210  0.03670  Biso   1.000  C
  C370     1.0000 0.84370  0.22000  0.00560  Biso   1.000  C
  C371     1.0000 0.87430  0.28990  0.03160  Biso   1.000  C
  C372     1.0000 0.81060  0.18490  0.00570  Biso   1.000  C
  O280     1.0000 0.31030  0.65650  0.47690  Biso   1.000  O
  O281     1.0000 0.28210  0.68540  0.53520  Biso   1.000  O
  O282     1.0000 0.40230  0.84960  0.56590  Biso   1.000  O
  C373     1.0000 0.34390  0.75210  0.53670  Biso   1.000  C
  C374     1.0000 0.34370  0.72000  0.50560  Biso   1.000  C
  C375     1.0000 0.37430  0.78990  0.53160  Biso   1.000  C
  C376     1.0000 0.31060  0.68490  0.50570  Biso   1.000  C
  O283     1.0000 0.31030  0.34350  0.02310  Biso   1.000  O
  O284     1.0000 0.28210  0.31460  0.96480  Biso   1.000  O
  O285     1.0000 0.40230  0.15040  0.93410  Biso   1.000  O
  C377     1.0000 0.34390  0.24790  0.96330  Biso   1.000  C
  C378     1.0000 0.34370  0.28000  0.99440  Biso   1.000  C
  C379     1.0000 0.37430  0.21010  0.96840  Biso   1.000  C
  C380     1.0000 0.31060  0.31510  0.99430  Biso   1.000  C
  O286     1.0000 0.81030  0.84350  0.52310  Biso   1.000  O
  O287     1.0000 0.78210  0.81460  0.46480  Biso   1.000  O
  O288     1.0000 0.90230  0.65040  0.43410  Biso   1.000  O
  C381     1.0000 0.84390  0.74790  0.46330  Biso   1.000  C
  C382     1.0000 0.84370  0.78000  0.49440  Biso   1.000  C
  C383     1.0000 0.87430  0.71010  0.46840  Biso   1.000  C
  C384     1.0000 0.81060  0.81510  0.49430  Biso   1.000  C
  In1      1.0000 0.75000  0.12500  0.00000  Biso   1.000  In
  In2      1.0000 0.75000  0.87500  0.50000  Biso   1.000  In
  In3      1.0000 0.25000  0.62500  0.50000  Biso   1.000  In
  In4      1.0000 0.25000  0.37500  0.00000  Biso   1.000  In
  In5      1.0000 0.00000  0.75000  0.12500  Biso   1.000  In
  In6      1.0000 0.50000  0.75000  0.87500  Biso   1.000  In
  In7      1.0000 0.50000  0.25000  0.62500  Biso   1.000  In
  In8      1.0000 0.00000  0.25000  0.37500  Biso   1.000  In
  In9      1.0000 0.12500  0.00000  0.75000  Biso   1.000  In
  In10     1.0000 0.87500  0.50000  0.75000  Biso   1.000  In
  In11     1.0000 0.62500  0.50000  0.25000  Biso   1.000  In
  In12     1.0000 0.37500  0.00000  0.25000  Biso   1.000  In
  In13     1.0000 0.87500  0.00000  0.25000  Biso   1.000  In
  In14     1.0000 0.62500  0.00000  0.75000  Biso   1.000  In
  In15     1.0000 0.37500  0.50000  0.75000  Biso   1.000  In
  In16     1.0000 0.12500  0.50000  0.25000  Biso   1.000  In
  In17     1.0000 0.50000  0.25000  0.12500  Biso   1.000  In
  In18     1.0000 0.50000  0.75000  0.37500  Biso   1.000  In
  In19     1.0000 0.00000  0.75000  0.62500  Biso   1.000  In
  In20     1.0000 0.00000  0.25000  0.87500  Biso   1.000  In
  In21     1.0000 0.75000  0.37500  0.50000  Biso   1.000  In
  In22     1.0000 0.25000  0.12500  0.50000  Biso   1.000  In
  In23     1.0000 0.25000  0.87500  0.00000  Biso   1.000  In
  In24     1.0000 0.75000  0.62500  0.00000  Biso   1.000  In
  Zn1      1.0000 0.65169  0.84831  0.15169  Biso   1.000  Zn
  Zn2      1.0000 0.67058  0.82942  0.17058  Biso   1.000  Zn
  Zn3      1.0000 0.15169  0.34831  0.65169  Biso   1.000  Zn
  Zn4      1.0000 0.17058  0.32942  0.67058  Biso   1.000  Zn
  Zn5      1.0000 0.84831  0.15169  0.65169  Biso   1.000  Zn
  Zn6      1.0000 0.82942  0.17058  0.67058  Biso   1.000  Zn
  Zn7      1.0000 0.34831  0.65169  0.15169  Biso   1.000  Zn
  Zn8      1.0000 0.32942  0.67058  0.17058  Biso   1.000  Zn
  Zn9      1.0000 0.34831  0.34831  0.34831  Biso   1.000  Zn
  Zn10     1.0000 0.32942  0.32942  0.32942  Biso   1.000  Zn
  Zn11     1.0000 0.84831  0.84831  0.84831  Biso   1.000  Zn
  Zn12     1.0000 0.82942  0.82942  0.82942  Biso   1.000  Zn
  Zn13     1.0000 0.15169  0.65169  0.84831  Biso   1.000  Zn
  Zn14     1.0000 0.17058  0.67058  0.82942  Biso   1.000  Zn
  Zn15     1.0000 0.65169  0.15169  0.34831  Biso   1.000  Zn
  Zn16     1.0000 0.67058  0.17058  0.32942  Biso   1.000  Zn
  Zn17     1.0000 0.59831  0.90169  0.09831  Biso   1.000  Zn
  Zn18     1.0000 0.57942  0.92058  0.07942  Biso   1.000  Zn
  Zn19     1.0000 0.09831  0.40169  0.59831  Biso   1.000  Zn
  Zn20     1.0000 0.07942  0.42058  0.57942  Biso   1.000  Zn
  Zn21     1.0000 0.90169  0.09831  0.59831  Biso   1.000  Zn
  Zn22     1.0000 0.92058  0.07942  0.57942  Biso   1.000  Zn
  Zn23     1.0000 0.40169  0.59831  0.09831  Biso   1.000  Zn
  Zn24     1.0000 0.42058  0.57942  0.07942  Biso   1.000  Zn
  Zn25     1.0000 0.09831  0.59831  0.90169  Biso   1.000  Zn
  Zn26     1.0000 0.07942  0.57942  0.92058  Biso   1.000  Zn
  Zn27     1.0000 0.59831  0.09831  0.40169  Biso   1.000  Zn
  Zn28     1.0000 0.57942  0.07942  0.42058  Biso   1.000  Zn
  Zn29     1.0000 0.40169  0.40169  0.40169  Biso   1.000  Zn
  Zn30     1.0000 0.42058  0.42058  0.42058  Biso   1.000  Zn
  Zn31     1.0000 0.90169  0.90169  0.90169  Biso   1.000  Zn
  Zn32     1.0000 0.92058  0.92058  0.92058  Biso   1.000  Zn
  Zn33     1.0000 0.34831  0.15169  0.84831  Biso   1.000  Zn
  Zn34     1.0000 0.32942  0.17058  0.82942  Biso   1.000  Zn
  Zn35     1.0000 0.84831  0.65169  0.34831  Biso   1.000  Zn
  Zn36     1.0000 0.82942  0.67058  0.32942  Biso   1.000  Zn
  Zn37     1.0000 0.15169  0.84831  0.34831  Biso   1.000  Zn
  Zn38     1.0000 0.17058  0.82942  0.32942  Biso   1.000  Zn
  Zn39     1.0000 0.65169  0.34831  0.84831  Biso   1.000  Zn
  Zn40     1.0000 0.67058  0.32942  0.82942  Biso   1.000  Zn
  Zn41     1.0000 0.65169  0.65169  0.65169  Biso   1.000  Zn
  Zn42     1.0000 0.67058  0.67058  0.67058  Biso   1.000  Zn
  Zn43     1.0000 0.15169  0.15169  0.15169  Biso   1.000  Zn
  Zn44     1.0000 0.17058  0.17058  0.17058  Biso   1.000  Zn
  Zn45     1.0000 0.84831  0.34831  0.15169  Biso   1.000  Zn
  Zn46     1.0000 0.82942  0.32942  0.17058  Biso   1.000  Zn
  Zn47     1.0000 0.34831  0.84831  0.65169  Biso   1.000  Zn
  Zn48     1.0000 0.32942  0.82942  0.67058  Biso   1.000  Zn
  Zn49     1.0000 0.40169  0.09831  0.90169  Biso   1.000  Zn
  Zn50     1.0000 0.42058  0.07942  0.92058  Biso   1.000  Zn
  Zn51     1.0000 0.90169  0.59831  0.40169  Biso   1.000  Zn
  Zn52     1.0000 0.92058  0.57942  0.42058  Biso   1.000  Zn
  Zn53     1.0000 0.09831  0.90169  0.40169  Biso   1.000  Zn
  Zn54     1.0000 0.07942  0.92058  0.42058  Biso   1.000  Zn
  Zn55     1.0000 0.59831  0.40169  0.90169  Biso   1.000  Zn
  Zn56     1.0000 0.57942  0.42058  0.92058  Biso   1.000  Zn
  Zn57     1.0000 0.90169  0.40169  0.09831  Biso   1.000  Zn
  Zn58     1.0000 0.92058  0.42058  0.07942  Biso   1.000  Zn
  Zn59     1.0000 0.40169  0.90169  0.59831  Biso   1.000  Zn
  Zn60     1.0000 0.42058  0.92058  0.57942  Biso   1.000  Zn
  Zn61     1.0000 0.59831  0.59831  0.59831  Biso   1.000  Zn
  Zn62     1.0000 0.57942  0.57942  0.57942  Biso   1.000  Zn
  Zn63     1.0000 0.09831  0.09831  0.09831  Biso   1.000  Zn
  Zn64     1.0000 0.07942  0.07942  0.07942  Biso   1.000  Zn
  C385     1.0000 0.68070  0.93070  0.12500  Biso   1.000  C
  C386     1.0000 0.77920  0.02920  0.12500  Biso   1.000  C
  C387     1.0000 0.18070  0.43070  0.62500  Biso   1.000  C
  C388     1.0000 0.27920  0.52920  0.62500  Biso   1.000  C
  C389     1.0000 0.81930  0.06930  0.62500  Biso   1.000  C
  C390     1.0000 0.72080  0.97080  0.62500  Biso   1.000  C
  C391     1.0000 0.31930  0.56930  0.12500  Biso   1.000  C
  C392     1.0000 0.22080  0.47080  0.12500  Biso   1.000  C
  C393     1.0000 0.31930  0.43070  0.37500  Biso   1.000  C
  C394     1.0000 0.22080  0.52920  0.37500  Biso   1.000  C
  C395     1.0000 0.81930  0.93070  0.87500  Biso   1.000  C
  C396     1.0000 0.72080  0.02920  0.87500  Biso   1.000  C
  C397     1.0000 0.18070  0.56930  0.87500  Biso   1.000  C
  C398     1.0000 0.27920  0.47080  0.87500  Biso   1.000  C
  C399     1.0000 0.68070  0.06930  0.37500  Biso   1.000  C
  C400     1.0000 0.77920  0.97080  0.37500  Biso   1.000  C
  C401     1.0000 0.12500  0.68070  0.93070  Biso   1.000  C
  C402     1.0000 0.12500  0.77920  0.02920  Biso   1.000  C
  C403     1.0000 0.62500  0.18070  0.43070  Biso   1.000  C
  C404     1.0000 0.62500  0.27920  0.52920  Biso   1.000  C
  C405     1.0000 0.62500  0.81930  0.06930  Biso   1.000  C
  C406     1.0000 0.62500  0.72080  0.97080  Biso   1.000  C
  C407     1.0000 0.12500  0.31930  0.56930  Biso   1.000  C
  C408     1.0000 0.12500  0.22080  0.47080  Biso   1.000  C
  C409     1.0000 0.37500  0.31930  0.43070  Biso   1.000  C
  C410     1.0000 0.37500  0.22080  0.52920  Biso   1.000  C
  C411     1.0000 0.87500  0.81930  0.93070  Biso   1.000  C
  C412     1.0000 0.87500  0.72080  0.02920  Biso   1.000  C
  C413     1.0000 0.87500  0.18070  0.56930  Biso   1.000  C
  C414     1.0000 0.87500  0.27920  0.47080  Biso   1.000  C
  C415     1.0000 0.37500  0.68070  0.06930  Biso   1.000  C
  C416     1.0000 0.37500  0.77920  0.97080  Biso   1.000  C
  C417     1.0000 0.93070  0.12500  0.68070  Biso   1.000  C
  C418     1.0000 0.02920  0.12500  0.77920  Biso   1.000  C
  C419     1.0000 0.43070  0.62500  0.18070  Biso   1.000  C
  C420     1.0000 0.52920  0.62500  0.27920  Biso   1.000  C
  C421     1.0000 0.06930  0.62500  0.81930  Biso   1.000  C
  C422     1.0000 0.97080  0.62500  0.72080  Biso   1.000  C
  C423     1.0000 0.56930  0.12500  0.31930  Biso   1.000  C
  C424     1.0000 0.47080  0.12500  0.22080  Biso   1.000  C
  C425     1.0000 0.43070  0.37500  0.31930  Biso   1.000  C
  C426     1.0000 0.52920  0.37500  0.22080  Biso   1.000  C
  C427     1.0000 0.93070  0.87500  0.81930  Biso   1.000  C
  C428     1.0000 0.02920  0.87500  0.72080  Biso   1.000  C
  C429     1.0000 0.56930  0.87500  0.18070  Biso   1.000  C
  C430     1.0000 0.47080  0.87500  0.27920  Biso   1.000  C
  C431     1.0000 0.06930  0.37500  0.68070  Biso   1.000  C
  C432     1.0000 0.97080  0.37500  0.77920  Biso   1.000  C
  C433     1.0000 0.31930  0.06930  0.87500  Biso   1.000  C
  C434     1.0000 0.22080  0.97080  0.87500  Biso   1.000  C
  C435     1.0000 0.81930  0.56930  0.37500  Biso   1.000  C
  C436     1.0000 0.72080  0.47080  0.37500  Biso   1.000  C
  C437     1.0000 0.18070  0.93070  0.37500  Biso   1.000  C
  C438     1.0000 0.27920  0.02920  0.37500  Biso   1.000  C
  C439     1.0000 0.68070  0.43070  0.87500  Biso   1.000  C
  C440     1.0000 0.77920  0.52920  0.87500  Biso   1.000  C
  C441     1.0000 0.68070  0.56930  0.62500  Biso   1.000  C
  C442     1.0000 0.77920  0.47080  0.62500  Biso   1.000  C
  C443     1.0000 0.18070  0.06930  0.12500  Biso   1.000  C
  C444     1.0000 0.27920  0.97080  0.12500  Biso   1.000  C
  C445     1.0000 0.81930  0.43070  0.12500  Biso   1.000  C
  C446     1.0000 0.72080  0.52920  0.12500  Biso   1.000  C
  C447     1.0000 0.31930  0.93070  0.62500  Biso   1.000  C
  C448     1.0000 0.22080  0.02920  0.62500  Biso   1.000  C
  C449     1.0000 0.87500  0.31930  0.06930  Biso   1.000  C
  C450     1.0000 0.87500  0.22080  0.97080  Biso   1.000  C
  C451     1.0000 0.37500  0.81930  0.56930  Biso   1.000  C
  C452     1.0000 0.37500  0.72080  0.47080  Biso   1.000  C
  C453     1.0000 0.37500  0.18070  0.93070  Biso   1.000  C
  C454     1.0000 0.37500  0.27920  0.02920  Biso   1.000  C
  C455     1.0000 0.87500  0.68070  0.43070  Biso   1.000  C
  C456     1.0000 0.87500  0.77920  0.52920  Biso   1.000  C
  C457     1.0000 0.62500  0.68070  0.56930  Biso   1.000  C
  C458     1.0000 0.62500  0.77920  0.47080  Biso   1.000  C
  C459     1.0000 0.12500  0.18070  0.06930  Biso   1.000  C
  C460     1.0000 0.12500  0.27920  0.97080  Biso   1.000  C
  C461     1.0000 0.12500  0.81930  0.43070  Biso   1.000  C
  C462     1.0000 0.12500  0.72080  0.52920  Biso   1.000  C
  C463     1.0000 0.62500  0.31930  0.93070  Biso   1.000  C
  C464     1.0000 0.62500  0.22080  0.02920  Biso   1.000  C
  C465     1.0000 0.06930  0.87500  0.31930  Biso   1.000  C
  C466     1.0000 0.97080  0.87500  0.22080  Biso   1.000  C
  C467     1.0000 0.56930  0.37500  0.81930  Biso   1.000  C
  C468     1.0000 0.47080  0.37500  0.72080  Biso   1.000  C
  C469     1.0000 0.93070  0.37500  0.18070  Biso   1.000  C
  C470     1.0000 0.02920  0.37500  0.27920  Biso   1.000  C
  C471     1.0000 0.43070  0.87500  0.68070  Biso   1.000  C
  C472     1.0000 0.52920  0.87500  0.77920  Biso   1.000  C
  C473     1.0000 0.56930  0.62500  0.68070  Biso   1.000  C
  C474     1.0000 0.47080  0.62500  0.77920  Biso   1.000  C
  C475     1.0000 0.06930  0.12500  0.18070  Biso   1.000  C
  C476     1.0000 0.97080  0.12500  0.27920  Biso   1.000  C
  C477     1.0000 0.43070  0.12500  0.81930  Biso   1.000  C
  C478     1.0000 0.52920  0.12500  0.72080  Biso   1.000  C
  C479     1.0000 0.93070  0.62500  0.31930  Biso   1.000  C
  C480     1.0000 0.02920  0.62500  0.22080  Biso   1.000  C
