data_image0
_cell_length_a       30.0968
_cell_length_b       30.0968
_cell_length_c       30.0968
_cell_angle_alpha    90
_cell_angle_beta     90
_cell_angle_gamma    90

_symmetry_space_group_name_H-M    "P 1"
_symmetry_int_tables_number       1

loop_
  _symmetry_equiv_pos_as_xyz
  'x, y, z'

loop_
  _atom_site_label
  _atom_site_occupancy
  _atom_site_fract_x
  _atom_site_fract_y
  _atom_site_fract_z
  _atom_site_thermal_displace_type
  _atom_site_B_iso_or_equiv
  _atom_site_type_symbol
  Cu1      1.0000 0.04574  0.57552  0.48487  Biso   1.000  Cu
  Cl1      1.0000 0.05580  0.62062  0.42425  Biso   1.000  Cl
  N1       1.0000 0.98833  0.60654  0.49803  Biso   1.000  N
  N2       1.0000 0.09649  0.53712  0.46616  Biso   1.000  N
  N3       1.0000 0.93347  0.65205  0.50507  Biso   1.000  N
  C1       1.0000 0.96877  0.64021  0.47940  Biso   1.000  C
  H1       1.0000 0.97760  0.65430  0.45220  Biso   1.000  H
  C2       1.0000 0.12410  0.54077  0.43268  Biso   1.000  C
  H2       1.0000 0.12450  0.56440  0.41130  Biso   1.000  H
  Cu2      1.0000 0.20426  0.17448  0.98487  Biso   1.000  Cu
  Cl2      1.0000 0.19420  0.12938  0.92425  Biso   1.000  Cl
  N4       1.0000 0.26167  0.14346  0.99803  Biso   1.000  N
  N5       1.0000 0.15351  0.21288  0.96616  Biso   1.000  N
  N6       1.0000 0.31653  0.09795  0.00507  Biso   1.000  N
  C3       1.0000 0.28123  0.10979  0.97940  Biso   1.000  C
  H3       1.0000 0.27240  0.09570  0.95220  Biso   1.000  H
  C4       1.0000 0.12590  0.20923  0.93268  Biso   1.000  C
  H4       1.0000 0.12550  0.18560  0.91130  Biso   1.000  H
  Cu3      1.0000 0.70426  0.07552  0.76513  Biso   1.000  Cu
  Cl3      1.0000 0.69420  0.12062  0.82575  Biso   1.000  Cl
  N7       1.0000 0.76167  0.10654  0.75197  Biso   1.000  N
  N8       1.0000 0.65351  0.03712  0.78384  Biso   1.000  N
  N9       1.0000 0.81653  0.15205  0.74493  Biso   1.000  N
  C5       1.0000 0.78123  0.14021  0.77060  Biso   1.000  C
  H5       1.0000 0.77240  0.15430  0.79780  Biso   1.000  H
  C6       1.0000 0.62590  0.04077  0.81732  Biso   1.000  C
  H6       1.0000 0.62550  0.06440  0.83870  Biso   1.000  H
  Cu4      1.0000 0.54574  0.67448  0.26513  Biso   1.000  Cu
  Cl4      1.0000 0.55580  0.62938  0.32575  Biso   1.000  Cl
  N10      1.0000 0.48833  0.64346  0.25197  Biso   1.000  N
  N11      1.0000 0.59649  0.71288  0.28384  Biso   1.000  N
  N12      1.0000 0.43347  0.59795  0.24493  Biso   1.000  N
  C7       1.0000 0.46877  0.60979  0.27060  Biso   1.000  C
  H7       1.0000 0.47760  0.59570  0.29780  Biso   1.000  H
  C8       1.0000 0.62410  0.70923  0.31732  Biso   1.000  C
  H8       1.0000 0.62450  0.68560  0.33870  Biso   1.000  H
  Cu5      1.0000 0.98487  0.54574  0.57552  Biso   1.000  Cu
  Cl5      1.0000 0.92425  0.55580  0.62062  Biso   1.000  Cl
  N13      1.0000 0.99803  0.48833  0.60654  Biso   1.000  N
  N14      1.0000 0.96616  0.59649  0.53712  Biso   1.000  N
  N15      1.0000 0.00507  0.43347  0.65205  Biso   1.000  N
  C9       1.0000 0.97940  0.46877  0.64021  Biso   1.000  C
  H9       1.0000 0.95220  0.47760  0.65430  Biso   1.000  H
  C10      1.0000 0.93268  0.62410  0.54077  Biso   1.000  C
  H10      1.0000 0.91130  0.62450  0.56440  Biso   1.000  H
  Cu6      1.0000 0.48487  0.70426  0.17448  Biso   1.000  Cu
  Cl6      1.0000 0.42425  0.69420  0.12938  Biso   1.000  Cl
  N16      1.0000 0.49803  0.76167  0.14346  Biso   1.000  N
  N17      1.0000 0.46616  0.65351  0.21288  Biso   1.000  N
  N18      1.0000 0.50507  0.81653  0.09795  Biso   1.000  N
  C11      1.0000 0.47940  0.78123  0.10979  Biso   1.000  C
  H11      1.0000 0.45220  0.77240  0.09570  Biso   1.000  H
  C12      1.0000 0.43268  0.62590  0.20923  Biso   1.000  C
  H12      1.0000 0.41130  0.62550  0.18560  Biso   1.000  H
  Cu7      1.0000 0.26513  0.20426  0.07552  Biso   1.000  Cu
  Cl7      1.0000 0.32575  0.19420  0.12062  Biso   1.000  Cl
  N19      1.0000 0.25197  0.26167  0.10654  Biso   1.000  N
  N20      1.0000 0.28384  0.15351  0.03712  Biso   1.000  N
  N21      1.0000 0.24493  0.31653  0.15205  Biso   1.000  N
  C13      1.0000 0.27060  0.28123  0.14021  Biso   1.000  C
  H13      1.0000 0.29780  0.27240  0.15430  Biso   1.000  H
  C14      1.0000 0.31732  0.12590  0.04077  Biso   1.000  C
  H14      1.0000 0.33870  0.12550  0.06440  Biso   1.000  H
  Cu8      1.0000 0.76513  0.04574  0.67448  Biso   1.000  Cu
  Cl8      1.0000 0.82575  0.05580  0.62938  Biso   1.000  Cl
  N22      1.0000 0.75197  0.98833  0.64346  Biso   1.000  N
  N23      1.0000 0.78384  0.09649  0.71288  Biso   1.000  N
  N24      1.0000 0.74493  0.93347  0.59795  Biso   1.000  N
  C15      1.0000 0.77060  0.96877  0.60979  Biso   1.000  C
  H15      1.0000 0.79780  0.97760  0.59570  Biso   1.000  H
  C16      1.0000 0.81732  0.12410  0.70923  Biso   1.000  C
  H16      1.0000 0.83870  0.12450  0.68560  Biso   1.000  H
  Cu9      1.0000 0.07552  0.48487  0.54574  Biso   1.000  Cu
  Cl9      1.0000 0.12062  0.42425  0.55580  Biso   1.000  Cl
  N25      1.0000 0.10654  0.49803  0.48833  Biso   1.000  N
  N26      1.0000 0.03712  0.46616  0.59649  Biso   1.000  N
  N27      1.0000 0.15205  0.50507  0.43347  Biso   1.000  N
  C17      1.0000 0.14021  0.47940  0.46877  Biso   1.000  C
  H17      1.0000 0.15430  0.45220  0.47760  Biso   1.000  H
  C18      1.0000 0.04077  0.43268  0.62410  Biso   1.000  C
  H18      1.0000 0.06440  0.41130  0.62450  Biso   1.000  H
  Cu10     1.0000 0.67448  0.98487  0.70426  Biso   1.000  Cu
  Cl10     1.0000 0.62938  0.92425  0.69420  Biso   1.000  Cl
  N28      1.0000 0.64346  0.99803  0.76167  Biso   1.000  N
  N29      1.0000 0.71288  0.96616  0.65351  Biso   1.000  N
  N30      1.0000 0.59795  0.00507  0.81653  Biso   1.000  N
  C19      1.0000 0.60979  0.97940  0.78123  Biso   1.000  C
  H19      1.0000 0.59570  0.95220  0.77240  Biso   1.000  H
  C20      1.0000 0.70923  0.93268  0.62590  Biso   1.000  C
  H20      1.0000 0.68560  0.91130  0.62550  Biso   1.000  H
  Cu11     1.0000 0.57552  0.76513  0.20426  Biso   1.000  Cu
  Cl11     1.0000 0.62062  0.82575  0.19420  Biso   1.000  Cl
  N31      1.0000 0.60654  0.75197  0.26167  Biso   1.000  N
  N32      1.0000 0.53712  0.78384  0.15351  Biso   1.000  N
  N33      1.0000 0.65205  0.74493  0.31653  Biso   1.000  N
  C21      1.0000 0.64021  0.77060  0.28123  Biso   1.000  C
  H21      1.0000 0.65430  0.79780  0.27240  Biso   1.000  H
  C22      1.0000 0.54077  0.81732  0.12590  Biso   1.000  C
  H22      1.0000 0.56440  0.83870  0.12550  Biso   1.000  H
  Cu12     1.0000 0.17448  0.26513  0.04574  Biso   1.000  Cu
  Cl12     1.0000 0.12938  0.32575  0.05580  Biso   1.000  Cl
  N34      1.0000 0.14346  0.25197  0.98833  Biso   1.000  N
  N35      1.0000 0.21288  0.28384  0.09649  Biso   1.000  N
  N36      1.0000 0.09795  0.24493  0.93347  Biso   1.000  N
  C23      1.0000 0.10979  0.27060  0.96877  Biso   1.000  C
  H23      1.0000 0.09570  0.29780  0.97760  Biso   1.000  H
  C24      1.0000 0.20923  0.31732  0.12410  Biso   1.000  C
  H24      1.0000 0.18560  0.33870  0.12450  Biso   1.000  H
  Cu13     1.0000 0.82552  0.79574  0.51513  Biso   1.000  Cu
  Cl13     1.0000 0.87062  0.80580  0.57575  Biso   1.000  Cl
  N37      1.0000 0.85654  0.73833  0.50197  Biso   1.000  N
  N38      1.0000 0.78712  0.84649  0.53384  Biso   1.000  N
  N39      1.0000 0.90205  0.68347  0.49493  Biso   1.000  N
  C25      1.0000 0.89021  0.71877  0.52060  Biso   1.000  C
  H25      1.0000 0.90430  0.72760  0.54780  Biso   1.000  H
  C26      1.0000 0.79077  0.87410  0.56732  Biso   1.000  C
  H26      1.0000 0.81440  0.87450  0.58870  Biso   1.000  H
  Cu14     1.0000 0.42448  0.95426  0.01513  Biso   1.000  Cu
  Cl14     1.0000 0.37938  0.94420  0.07575  Biso   1.000  Cl
  N40      1.0000 0.39346  0.01167  0.00197  Biso   1.000  N
  N41      1.0000 0.46288  0.90351  0.03384  Biso   1.000  N
  N42      1.0000 0.34795  0.06653  0.99493  Biso   1.000  N
  C27      1.0000 0.35979  0.03123  0.02060  Biso   1.000  C
  H27      1.0000 0.34570  0.02240  0.04780  Biso   1.000  H
  C28      1.0000 0.45923  0.87590  0.06732  Biso   1.000  C
  H28      1.0000 0.43560  0.87550  0.08870  Biso   1.000  H
  Cu15     1.0000 0.32552  0.45426  0.23487  Biso   1.000  Cu
  Cl15     1.0000 0.37062  0.44420  0.17425  Biso   1.000  Cl
  N43      1.0000 0.35654  0.51167  0.24803  Biso   1.000  N
  N44      1.0000 0.28712  0.40351  0.21616  Biso   1.000  N
  N45      1.0000 0.40205  0.56653  0.25507  Biso   1.000  N
  C29      1.0000 0.39021  0.53123  0.22940  Biso   1.000  C
  H29      1.0000 0.40430  0.52240  0.20220  Biso   1.000  H
  C30      1.0000 0.29077  0.37590  0.18268  Biso   1.000  C
  H30      1.0000 0.31440  0.37550  0.16130  Biso   1.000  H
  Cu16     1.0000 0.92448  0.29574  0.73487  Biso   1.000  Cu
  Cl16     1.0000 0.87938  0.30580  0.67425  Biso   1.000  Cl
  N46      1.0000 0.89346  0.23833  0.74803  Biso   1.000  N
  N47      1.0000 0.96288  0.34649  0.71616  Biso   1.000  N
  N48      1.0000 0.84795  0.18347  0.75507  Biso   1.000  N
  C31      1.0000 0.85979  0.21877  0.72940  Biso   1.000  C
  H31      1.0000 0.84570  0.22760  0.70220  Biso   1.000  H
  C32      1.0000 0.95923  0.37410  0.68268  Biso   1.000  C
  H32      1.0000 0.93560  0.37450  0.66130  Biso   1.000  H
  Cu17     1.0000 0.79574  0.73487  0.42448  Biso   1.000  Cu
  Cl17     1.0000 0.80580  0.67425  0.37938  Biso   1.000  Cl
  N49      1.0000 0.73833  0.74803  0.39346  Biso   1.000  N
  N50      1.0000 0.84649  0.71616  0.46288  Biso   1.000  N
  N51      1.0000 0.68347  0.75507  0.34795  Biso   1.000  N
  C33      1.0000 0.71877  0.72940  0.35979  Biso   1.000  C
  H33      1.0000 0.72760  0.70220  0.34570  Biso   1.000  H
  C34      1.0000 0.87410  0.68268  0.45923  Biso   1.000  C
  H34      1.0000 0.87450  0.66130  0.43560  Biso   1.000  H
  Cu18     1.0000 0.95426  0.23487  0.82552  Biso   1.000  Cu
  Cl18     1.0000 0.94420  0.17425  0.87062  Biso   1.000  Cl
  N52      1.0000 0.01167  0.24803  0.85654  Biso   1.000  N
  N53      1.0000 0.90351  0.21616  0.78712  Biso   1.000  N
  N54      1.0000 0.06653  0.25507  0.90205  Biso   1.000  N
  C35      1.0000 0.03123  0.22940  0.89021  Biso   1.000  C
  H35      1.0000 0.02240  0.20220  0.90430  Biso   1.000  H
  C36      1.0000 0.87590  0.18268  0.79077  Biso   1.000  C
  H36      1.0000 0.87550  0.16130  0.81440  Biso   1.000  H
  Cu19     1.0000 0.45426  0.01513  0.92448  Biso   1.000  Cu
  Cl19     1.0000 0.44420  0.07575  0.87938  Biso   1.000  Cl
  N55      1.0000 0.51167  0.00197  0.89346  Biso   1.000  N
  N56      1.0000 0.40351  0.03384  0.96288  Biso   1.000  N
  N57      1.0000 0.56653  0.99493  0.84795  Biso   1.000  N
  C37      1.0000 0.53123  0.02060  0.85979  Biso   1.000  C
  H37      1.0000 0.52240  0.04780  0.84570  Biso   1.000  H
  C38      1.0000 0.37590  0.06732  0.95923  Biso   1.000  C
  H38      1.0000 0.37550  0.08870  0.93560  Biso   1.000  H
  Cu20     1.0000 0.29574  0.51513  0.32552  Biso   1.000  Cu
  Cl20     1.0000 0.30580  0.57575  0.37062  Biso   1.000  Cl
  N58      1.0000 0.23833  0.50197  0.35654  Biso   1.000  N
  N59      1.0000 0.34649  0.53384  0.28712  Biso   1.000  N
  N60      1.0000 0.18347  0.49493  0.40205  Biso   1.000  N
  C39      1.0000 0.21877  0.52060  0.39021  Biso   1.000  C
  H39      1.0000 0.22760  0.54780  0.40430  Biso   1.000  H
  C40      1.0000 0.37410  0.56732  0.29077  Biso   1.000  C
  H40      1.0000 0.37450  0.58870  0.31440  Biso   1.000  H
  Cu21     1.0000 0.73487  0.82552  0.45426  Biso   1.000  Cu
  Cl21     1.0000 0.67425  0.87062  0.44420  Biso   1.000  Cl
  N61      1.0000 0.74803  0.85654  0.51167  Biso   1.000  N
  N62      1.0000 0.71616  0.78712  0.40351  Biso   1.000  N
  N63      1.0000 0.75507  0.90205  0.56653  Biso   1.000  N
  C41      1.0000 0.72940  0.89021  0.53123  Biso   1.000  C
  H41      1.0000 0.70220  0.90430  0.52240  Biso   1.000  H
  C42      1.0000 0.68268  0.79077  0.37590  Biso   1.000  C
  H42      1.0000 0.66130  0.81440  0.37550  Biso   1.000  H
  Cu22     1.0000 0.23487  0.42448  0.29574  Biso   1.000  Cu
  Cl22     1.0000 0.17425  0.37938  0.30580  Biso   1.000  Cl
  N64      1.0000 0.24803  0.39346  0.23833  Biso   1.000  N
  N65      1.0000 0.21616  0.46288  0.34649  Biso   1.000  N
  N66      1.0000 0.25507  0.34795  0.18347  Biso   1.000  N
  C43      1.0000 0.22940  0.35979  0.21877  Biso   1.000  C
  H43      1.0000 0.20220  0.34570  0.22760  Biso   1.000  H
  C44      1.0000 0.18268  0.45923  0.37410  Biso   1.000  C
  H44      1.0000 0.16130  0.43560  0.37450  Biso   1.000  H
  Cu23     1.0000 0.01513  0.32552  0.79574  Biso   1.000  Cu
  Cl23     1.0000 0.07575  0.37062  0.80580  Biso   1.000  Cl
  N67      1.0000 0.00197  0.35654  0.73833  Biso   1.000  N
  N68      1.0000 0.03384  0.28712  0.84649  Biso   1.000  N
  N69      1.0000 0.99493  0.40205  0.68347  Biso   1.000  N
  C45      1.0000 0.02060  0.39021  0.71877  Biso   1.000  C
  H45      1.0000 0.04780  0.40430  0.72760  Biso   1.000  H
  C46      1.0000 0.06732  0.29077  0.87410  Biso   1.000  C
  H46      1.0000 0.08870  0.31440  0.87450  Biso   1.000  H
  Cu24     1.0000 0.51513  0.92448  0.95426  Biso   1.000  Cu
  Cl24     1.0000 0.57575  0.87938  0.94420  Biso   1.000  Cl
  N70      1.0000 0.50197  0.89346  0.01167  Biso   1.000  N
  N71      1.0000 0.53384  0.96288  0.90351  Biso   1.000  N
  N72      1.0000 0.49493  0.84795  0.06653  Biso   1.000  N
  C47      1.0000 0.52060  0.85979  0.03123  Biso   1.000  C
  H47      1.0000 0.54780  0.84570  0.02240  Biso   1.000  H
  C48      1.0000 0.56732  0.95923  0.87590  Biso   1.000  C
  H48      1.0000 0.58870  0.93560  0.87550  Biso   1.000  H
  O1       1.0000 0.02604  0.52604  0.52604  Biso   1.000  O
  H49      1.0000 0.00970  0.50970  0.50970  Biso   1.000  H
  O2       1.0000 0.22396  0.22396  0.02604  Biso   1.000  O
  H50      1.0000 0.24030  0.24030  0.00970  Biso   1.000  H
  O3       1.0000 0.72396  0.02604  0.72396  Biso   1.000  O
  H51      1.0000 0.74030  0.00970  0.74030  Biso   1.000  H
  O4       1.0000 0.52604  0.72396  0.22396  Biso   1.000  O
  H52      1.0000 0.50970  0.74030  0.24030  Biso   1.000  H
  O5       1.0000 0.97396  0.27604  0.77604  Biso   1.000  O
  H53      1.0000 0.99030  0.25970  0.75970  Biso   1.000  H
  O6       1.0000 0.77604  0.77604  0.47396  Biso   1.000  O
  H54      1.0000 0.75970  0.75970  0.49030  Biso   1.000  H
  O7       1.0000 0.47396  0.97396  0.97396  Biso   1.000  O
  H55      1.0000 0.49030  0.99030  0.99030  Biso   1.000  H
  O8       1.0000 0.27604  0.47396  0.27604  Biso   1.000  O
  H56      1.0000 0.25970  0.49030  0.25970  Biso   1.000  H
  Cu25     1.0000 0.04574  0.07552  0.98487  Biso   1.000  Cu
  Cl25     1.0000 0.05580  0.12062  0.92425  Biso   1.000  Cl
  N73      1.0000 0.98833  0.10654  0.99803  Biso   1.000  N
  N74      1.0000 0.09649  0.03712  0.96616  Biso   1.000  N
  N75      1.0000 0.93347  0.15205  0.00507  Biso   1.000  N
  C49      1.0000 0.96877  0.14021  0.97940  Biso   1.000  C
  H57      1.0000 0.97760  0.15430  0.95220  Biso   1.000  H
  C50      1.0000 0.12410  0.04077  0.93268  Biso   1.000  C
  H58      1.0000 0.12450  0.06440  0.91130  Biso   1.000  H
  Cu26     1.0000 0.20426  0.67448  0.48487  Biso   1.000  Cu
  Cl26     1.0000 0.19420  0.62938  0.42425  Biso   1.000  Cl
  N76      1.0000 0.26167  0.64346  0.49803  Biso   1.000  N
  N77      1.0000 0.15351  0.71288  0.46616  Biso   1.000  N
  N78      1.0000 0.31653  0.59795  0.50507  Biso   1.000  N
  C51      1.0000 0.28123  0.60979  0.47940  Biso   1.000  C
  H59      1.0000 0.27240  0.59570  0.45220  Biso   1.000  H
  C52      1.0000 0.12590  0.70923  0.43268  Biso   1.000  C
  H60      1.0000 0.12550  0.68560  0.41130  Biso   1.000  H
  Cu27     1.0000 0.70426  0.57552  0.26513  Biso   1.000  Cu
  Cl27     1.0000 0.69420  0.62062  0.32575  Biso   1.000  Cl
  N79      1.0000 0.76167  0.60654  0.25197  Biso   1.000  N
  N80      1.0000 0.65351  0.53712  0.28384  Biso   1.000  N
  N81      1.0000 0.81653  0.65205  0.24493  Biso   1.000  N
  C53      1.0000 0.78123  0.64021  0.27060  Biso   1.000  C
  H61      1.0000 0.77240  0.65430  0.29780  Biso   1.000  H
  C54      1.0000 0.62590  0.54077  0.31732  Biso   1.000  C
  H62      1.0000 0.62550  0.56440  0.33870  Biso   1.000  H
  Cu28     1.0000 0.54574  0.17448  0.76513  Biso   1.000  Cu
  Cl28     1.0000 0.55580  0.12938  0.82575  Biso   1.000  Cl
  N82      1.0000 0.48833  0.14346  0.75197  Biso   1.000  N
  N83      1.0000 0.59649  0.21288  0.78384  Biso   1.000  N
  N84      1.0000 0.43347  0.09795  0.74493  Biso   1.000  N
  C55      1.0000 0.46877  0.10979  0.77060  Biso   1.000  C
  H63      1.0000 0.47760  0.09570  0.79780  Biso   1.000  H
  C56      1.0000 0.62410  0.20923  0.81732  Biso   1.000  C
  H64      1.0000 0.62450  0.18560  0.83870  Biso   1.000  H
  Cu29     1.0000 0.98487  0.04574  0.07552  Biso   1.000  Cu
  Cl29     1.0000 0.92425  0.05580  0.12062  Biso   1.000  Cl
  N85      1.0000 0.99803  0.98833  0.10654  Biso   1.000  N
  N86      1.0000 0.96616  0.09649  0.03712  Biso   1.000  N
  N87      1.0000 0.00507  0.93347  0.15205  Biso   1.000  N
  C57      1.0000 0.97940  0.96877  0.14021  Biso   1.000  C
  H65      1.0000 0.95220  0.97760  0.15430  Biso   1.000  H
  C58      1.0000 0.93268  0.12410  0.04077  Biso   1.000  C
  H66      1.0000 0.91130  0.12450  0.06440  Biso   1.000  H
  Cu30     1.0000 0.48487  0.20426  0.67448  Biso   1.000  Cu
  Cl30     1.0000 0.42425  0.19420  0.62938  Biso   1.000  Cl
  N88      1.0000 0.49803  0.26167  0.64346  Biso   1.000  N
  N89      1.0000 0.46616  0.15351  0.71288  Biso   1.000  N
  N90      1.0000 0.50507  0.31653  0.59795  Biso   1.000  N
  C59      1.0000 0.47940  0.28123  0.60979  Biso   1.000  C
  H67      1.0000 0.45220  0.27240  0.59570  Biso   1.000  H
  C60      1.0000 0.43268  0.12590  0.70923  Biso   1.000  C
  H68      1.0000 0.41130  0.12550  0.68560  Biso   1.000  H
  Cu31     1.0000 0.26513  0.70426  0.57552  Biso   1.000  Cu
  Cl31     1.0000 0.32575  0.69420  0.62062  Biso   1.000  Cl
  N91      1.0000 0.25197  0.76167  0.60654  Biso   1.000  N
  N92      1.0000 0.28384  0.65351  0.53712  Biso   1.000  N
  N93      1.0000 0.24493  0.81653  0.65205  Biso   1.000  N
  C61      1.0000 0.27060  0.78123  0.64021  Biso   1.000  C
  H69      1.0000 0.29780  0.77240  0.65430  Biso   1.000  H
  C62      1.0000 0.31732  0.62590  0.54077  Biso   1.000  C
  H70      1.0000 0.33870  0.62550  0.56440  Biso   1.000  H
  Cu32     1.0000 0.76513  0.54574  0.17448  Biso   1.000  Cu
  Cl32     1.0000 0.82575  0.55580  0.12938  Biso   1.000  Cl
  N94      1.0000 0.75197  0.48833  0.14346  Biso   1.000  N
  N95      1.0000 0.78384  0.59649  0.21288  Biso   1.000  N
  N96      1.0000 0.74493  0.43347  0.09795  Biso   1.000  N
  C63      1.0000 0.77060  0.46877  0.10979  Biso   1.000  C
  H71      1.0000 0.79780  0.47760  0.09570  Biso   1.000  H
  C64      1.0000 0.81732  0.62410  0.20923  Biso   1.000  C
  H72      1.0000 0.83870  0.62450  0.18560  Biso   1.000  H
  Cu33     1.0000 0.07552  0.98487  0.04574  Biso   1.000  Cu
  Cl33     1.0000 0.12062  0.92425  0.05580  Biso   1.000  Cl
  N97      1.0000 0.10654  0.99803  0.98833  Biso   1.000  N
  N98      1.0000 0.03712  0.96616  0.09649  Biso   1.000  N
  N99      1.0000 0.15205  0.00507  0.93347  Biso   1.000  N
  C65      1.0000 0.14021  0.97940  0.96877  Biso   1.000  C
  H73      1.0000 0.15430  0.95220  0.97760  Biso   1.000  H
  C66      1.0000 0.04077  0.93268  0.12410  Biso   1.000  C
  H74      1.0000 0.06440  0.91130  0.12450  Biso   1.000  H
  Cu34     1.0000 0.67448  0.48487  0.20426  Biso   1.000  Cu
  Cl34     1.0000 0.62938  0.42425  0.19420  Biso   1.000  Cl
  N100     1.0000 0.64346  0.49803  0.26167  Biso   1.000  N
  N101     1.0000 0.71288  0.46616  0.15351  Biso   1.000  N
  N102     1.0000 0.59795  0.50507  0.31653  Biso   1.000  N
  C67      1.0000 0.60979  0.47940  0.28123  Biso   1.000  C
  H75      1.0000 0.59570  0.45220  0.27240  Biso   1.000  H
  C68      1.0000 0.70923  0.43268  0.12590  Biso   1.000  C
  H76      1.0000 0.68560  0.41130  0.12550  Biso   1.000  H
  Cu35     1.0000 0.57552  0.26513  0.70426  Biso   1.000  Cu
  Cl35     1.0000 0.62062  0.32575  0.69420  Biso   1.000  Cl
  N103     1.0000 0.60654  0.25197  0.76167  Biso   1.000  N
  N104     1.0000 0.53712  0.28384  0.65351  Biso   1.000  N
  N105     1.0000 0.65205  0.24493  0.81653  Biso   1.000  N
  C69      1.0000 0.64021  0.27060  0.78123  Biso   1.000  C
  H77      1.0000 0.65430  0.29780  0.77240  Biso   1.000  H
  C70      1.0000 0.54077  0.31732  0.62590  Biso   1.000  C
  H78      1.0000 0.56440  0.33870  0.62550  Biso   1.000  H
  Cu36     1.0000 0.17448  0.76513  0.54574  Biso   1.000  Cu
  Cl36     1.0000 0.12938  0.82575  0.55580  Biso   1.000  Cl
  N106     1.0000 0.14346  0.75197  0.48833  Biso   1.000  N
  N107     1.0000 0.21288  0.78384  0.59649  Biso   1.000  N
  N108     1.0000 0.09795  0.74493  0.43347  Biso   1.000  N
  C71      1.0000 0.10979  0.77060  0.46877  Biso   1.000  C
  H79      1.0000 0.09570  0.79780  0.47760  Biso   1.000  H
  C72      1.0000 0.20923  0.81732  0.62410  Biso   1.000  C
  H80      1.0000 0.18560  0.83870  0.62450  Biso   1.000  H
  Cu37     1.0000 0.82552  0.29574  0.01513  Biso   1.000  Cu
  Cl37     1.0000 0.87062  0.30580  0.07575  Biso   1.000  Cl
  N109     1.0000 0.85654  0.23833  0.00197  Biso   1.000  N
  N110     1.0000 0.78712  0.34649  0.03384  Biso   1.000  N
  N111     1.0000 0.90205  0.18347  0.99493  Biso   1.000  N
  C73      1.0000 0.89021  0.21877  0.02060  Biso   1.000  C
  H81      1.0000 0.90430  0.22760  0.04780  Biso   1.000  H
  C74      1.0000 0.79077  0.37410  0.06732  Biso   1.000  C
  H82      1.0000 0.81440  0.37450  0.08870  Biso   1.000  H
  Cu38     1.0000 0.42448  0.45426  0.51513  Biso   1.000  Cu
  Cl38     1.0000 0.37938  0.44420  0.57575  Biso   1.000  Cl
  N112     1.0000 0.39346  0.51167  0.50197  Biso   1.000  N
  N113     1.0000 0.46288  0.40351  0.53384  Biso   1.000  N
  N114     1.0000 0.34795  0.56653  0.49493  Biso   1.000  N
  C75      1.0000 0.35979  0.53123  0.52060  Biso   1.000  C
  H83      1.0000 0.34570  0.52240  0.54780  Biso   1.000  H
  C76      1.0000 0.45923  0.37590  0.56732  Biso   1.000  C
  H84      1.0000 0.43560  0.37550  0.58870  Biso   1.000  H
  Cu39     1.0000 0.32552  0.95426  0.73487  Biso   1.000  Cu
  Cl39     1.0000 0.37062  0.94420  0.67425  Biso   1.000  Cl
  N115     1.0000 0.35654  0.01167  0.74803  Biso   1.000  N
  N116     1.0000 0.28712  0.90351  0.71616  Biso   1.000  N
  N117     1.0000 0.40205  0.06653  0.75507  Biso   1.000  N
  C77      1.0000 0.39021  0.03123  0.72940  Biso   1.000  C
  H85      1.0000 0.40430  0.02240  0.70220  Biso   1.000  H
  C78      1.0000 0.29077  0.87590  0.68268  Biso   1.000  C
  H86      1.0000 0.31440  0.87550  0.66130  Biso   1.000  H
  Cu40     1.0000 0.92448  0.79574  0.23487  Biso   1.000  Cu
  Cl40     1.0000 0.87938  0.80580  0.17425  Biso   1.000  Cl
  N118     1.0000 0.89346  0.73833  0.24803  Biso   1.000  N
  N119     1.0000 0.96288  0.84649  0.21616  Biso   1.000  N
  N120     1.0000 0.84795  0.68347  0.25507  Biso   1.000  N
  C79      1.0000 0.85979  0.71877  0.22940  Biso   1.000  C
  H87      1.0000 0.84570  0.72760  0.20220  Biso   1.000  H
  C80      1.0000 0.95923  0.87410  0.18268  Biso   1.000  C
  H88      1.0000 0.93560  0.87450  0.16130  Biso   1.000  H
  Cu41     1.0000 0.79574  0.23487  0.92448  Biso   1.000  Cu
  Cl41     1.0000 0.80580  0.17425  0.87938  Biso   1.000  Cl
  N121     1.0000 0.73833  0.24803  0.89346  Biso   1.000  N
  N122     1.0000 0.84649  0.21616  0.96288  Biso   1.000  N
  N123     1.0000 0.68347  0.25507  0.84795  Biso   1.000  N
  C81      1.0000 0.71877  0.22940  0.85979  Biso   1.000  C
  H89      1.0000 0.72760  0.20220  0.84570  Biso   1.000  H
  C82      1.0000 0.87410  0.18268  0.95923  Biso   1.000  C
  H90      1.0000 0.87450  0.16130  0.93560  Biso   1.000  H
  Cu42     1.0000 0.95426  0.73487  0.32552  Biso   1.000  Cu
  Cl42     1.0000 0.94420  0.67425  0.37062  Biso   1.000  Cl
  N124     1.0000 0.01167  0.74803  0.35654  Biso   1.000  N
  N125     1.0000 0.90351  0.71616  0.28712  Biso   1.000  N
  N126     1.0000 0.06653  0.75507  0.40205  Biso   1.000  N
  C83      1.0000 0.03123  0.72940  0.39021  Biso   1.000  C
  H91      1.0000 0.02240  0.70220  0.40430  Biso   1.000  H
  C84      1.0000 0.87590  0.68268  0.29077  Biso   1.000  C
  H92      1.0000 0.87550  0.66130  0.31440  Biso   1.000  H
  Cu43     1.0000 0.45426  0.51513  0.42448  Biso   1.000  Cu
  Cl43     1.0000 0.44420  0.57575  0.37938  Biso   1.000  Cl
  N127     1.0000 0.51167  0.50197  0.39346  Biso   1.000  N
  N128     1.0000 0.40351  0.53384  0.46288  Biso   1.000  N
  N129     1.0000 0.56653  0.49493  0.34795  Biso   1.000  N
  C85      1.0000 0.53123  0.52060  0.35979  Biso   1.000  C
  H93      1.0000 0.52240  0.54780  0.34570  Biso   1.000  H
  C86      1.0000 0.37590  0.56732  0.45923  Biso   1.000  C
  H94      1.0000 0.37550  0.58870  0.43560  Biso   1.000  H
  Cu44     1.0000 0.29574  0.01513  0.82552  Biso   1.000  Cu
  Cl44     1.0000 0.30580  0.07575  0.87062  Biso   1.000  Cl
  N130     1.0000 0.23833  0.00197  0.85654  Biso   1.000  N
  N131     1.0000 0.34649  0.03384  0.78712  Biso   1.000  N
  N132     1.0000 0.18347  0.99493  0.90205  Biso   1.000  N
  C87      1.0000 0.21877  0.02060  0.89021  Biso   1.000  C
  H95      1.0000 0.22760  0.04780  0.90430  Biso   1.000  H
  C88      1.0000 0.37410  0.06732  0.79077  Biso   1.000  C
  H96      1.0000 0.37450  0.08870  0.81440  Biso   1.000  H
  Cu45     1.0000 0.73487  0.32552  0.95426  Biso   1.000  Cu
  Cl45     1.0000 0.67425  0.37062  0.94420  Biso   1.000  Cl
  N133     1.0000 0.74803  0.35654  0.01167  Biso   1.000  N
  N134     1.0000 0.71616  0.28712  0.90351  Biso   1.000  N
  N135     1.0000 0.75507  0.40205  0.06653  Biso   1.000  N
  C89      1.0000 0.72940  0.39021  0.03123  Biso   1.000  C
  H97      1.0000 0.70220  0.40430  0.02240  Biso   1.000  H
  C90      1.0000 0.68268  0.29077  0.87590  Biso   1.000  C
  H98      1.0000 0.66130  0.31440  0.87550  Biso   1.000  H
  Cu46     1.0000 0.23487  0.92448  0.79574  Biso   1.000  Cu
  Cl46     1.0000 0.17425  0.87938  0.80580  Biso   1.000  Cl
  N136     1.0000 0.24803  0.89346  0.73833  Biso   1.000  N
  N137     1.0000 0.21616  0.96288  0.84649  Biso   1.000  N
  N138     1.0000 0.25507  0.84795  0.68347  Biso   1.000  N
  C91      1.0000 0.22940  0.85979  0.71877  Biso   1.000  C
  H99      1.0000 0.20220  0.84570  0.72760  Biso   1.000  H
  C92      1.0000 0.18268  0.95923  0.87410  Biso   1.000  C
  H100     1.0000 0.16130  0.93560  0.87450  Biso   1.000  H
  Cu47     1.0000 0.01513  0.82552  0.29574  Biso   1.000  Cu
  Cl47     1.0000 0.07575  0.87062  0.30580  Biso   1.000  Cl
  N139     1.0000 0.00197  0.85654  0.23833  Biso   1.000  N
  N140     1.0000 0.03384  0.78712  0.34649  Biso   1.000  N
  N141     1.0000 0.99493  0.90205  0.18347  Biso   1.000  N
  C93      1.0000 0.02060  0.89021  0.21877  Biso   1.000  C
  H101     1.0000 0.04780  0.90430  0.22760  Biso   1.000  H
  C94      1.0000 0.06732  0.79077  0.37410  Biso   1.000  C
  H102     1.0000 0.08870  0.81440  0.37450  Biso   1.000  H
  Cu48     1.0000 0.51513  0.42448  0.45426  Biso   1.000  Cu
  Cl48     1.0000 0.57575  0.37938  0.44420  Biso   1.000  Cl
  N142     1.0000 0.50197  0.39346  0.51167  Biso   1.000  N
  N143     1.0000 0.53384  0.46288  0.40351  Biso   1.000  N
  N144     1.0000 0.49493  0.34795  0.56653  Biso   1.000  N
  C95      1.0000 0.52060  0.35979  0.53123  Biso   1.000  C
  H103     1.0000 0.54780  0.34570  0.52240  Biso   1.000  H
  C96      1.0000 0.56732  0.45923  0.37590  Biso   1.000  C
  H104     1.0000 0.58870  0.43560  0.37550  Biso   1.000  H
  O9       1.0000 0.02604  0.02604  0.02604  Biso   1.000  O
  H105     1.0000 0.00970  0.00970  0.00970  Biso   1.000  H
  O10      1.0000 0.22396  0.72396  0.52604  Biso   1.000  O
  H106     1.0000 0.24030  0.74030  0.50970  Biso   1.000  H
  O11      1.0000 0.72396  0.52604  0.22396  Biso   1.000  O
  H107     1.0000 0.74030  0.50970  0.24030  Biso   1.000  H
  O12      1.0000 0.52604  0.22396  0.72396  Biso   1.000  O
  H108     1.0000 0.50970  0.24030  0.74030  Biso   1.000  H
  O13      1.0000 0.47396  0.47396  0.47396  Biso   1.000  O
  H109     1.0000 0.49030  0.49030  0.49030  Biso   1.000  H
  O14      1.0000 0.77604  0.27604  0.97396  Biso   1.000  O
  H110     1.0000 0.75970  0.25970  0.99030  Biso   1.000  H
  O15      1.0000 0.97396  0.77604  0.27604  Biso   1.000  O
  H111     1.0000 0.99030  0.75970  0.25970  Biso   1.000  H
  O16      1.0000 0.27604  0.97396  0.77604  Biso   1.000  O
  H112     1.0000 0.25970  0.99030  0.75970  Biso   1.000  H
  Cu49     1.0000 0.54574  0.57552  0.98487  Biso   1.000  Cu
  Cl49     1.0000 0.55580  0.62062  0.92425  Biso   1.000  Cl
  N145     1.0000 0.48833  0.60654  0.99803  Biso   1.000  N
  N146     1.0000 0.59649  0.53712  0.96616  Biso   1.000  N
  N147     1.0000 0.43347  0.65205  0.00507  Biso   1.000  N
  C97      1.0000 0.46877  0.64021  0.97940  Biso   1.000  C
  H113     1.0000 0.47760  0.65430  0.95220  Biso   1.000  H
  C98      1.0000 0.62410  0.54077  0.93268  Biso   1.000  C
  H114     1.0000 0.62450  0.56440  0.91130  Biso   1.000  H
  Cu50     1.0000 0.70426  0.17448  0.48487  Biso   1.000  Cu
  Cl50     1.0000 0.69420  0.12938  0.42425  Biso   1.000  Cl
  N148     1.0000 0.76167  0.14346  0.49803  Biso   1.000  N
  N149     1.0000 0.65351  0.21288  0.46616  Biso   1.000  N
  N150     1.0000 0.81653  0.09795  0.50507  Biso   1.000  N
  C99      1.0000 0.78123  0.10979  0.47940  Biso   1.000  C
  H115     1.0000 0.77240  0.09570  0.45220  Biso   1.000  H
  C100     1.0000 0.62590  0.20923  0.43268  Biso   1.000  C
  H116     1.0000 0.62550  0.18560  0.41130  Biso   1.000  H
  Cu51     1.0000 0.20426  0.07552  0.26513  Biso   1.000  Cu
  Cl51     1.0000 0.19420  0.12062  0.32575  Biso   1.000  Cl
  N151     1.0000 0.26167  0.10654  0.25197  Biso   1.000  N
  N152     1.0000 0.15351  0.03712  0.28384  Biso   1.000  N
  N153     1.0000 0.31653  0.15205  0.24493  Biso   1.000  N
  C101     1.0000 0.28123  0.14021  0.27060  Biso   1.000  C
  H117     1.0000 0.27240  0.15430  0.29780  Biso   1.000  H
  C102     1.0000 0.12590  0.04077  0.31732  Biso   1.000  C
  H118     1.0000 0.12550  0.06440  0.33870  Biso   1.000  H
  Cu52     1.0000 0.04574  0.67448  0.76513  Biso   1.000  Cu
  Cl52     1.0000 0.05580  0.62938  0.82575  Biso   1.000  Cl
  N154     1.0000 0.98833  0.64346  0.75197  Biso   1.000  N
  N155     1.0000 0.09649  0.71288  0.78384  Biso   1.000  N
  N156     1.0000 0.93347  0.59795  0.74493  Biso   1.000  N
  C103     1.0000 0.96877  0.60979  0.77060  Biso   1.000  C
  H119     1.0000 0.97760  0.59570  0.79780  Biso   1.000  H
  C104     1.0000 0.12410  0.70923  0.81732  Biso   1.000  C
  H120     1.0000 0.12450  0.68560  0.83870  Biso   1.000  H
  Cu53     1.0000 0.48487  0.54574  0.07552  Biso   1.000  Cu
  Cl53     1.0000 0.42425  0.55580  0.12062  Biso   1.000  Cl
  N157     1.0000 0.49803  0.48833  0.10654  Biso   1.000  N
  N158     1.0000 0.46616  0.59649  0.03712  Biso   1.000  N
  N159     1.0000 0.50507  0.43347  0.15205  Biso   1.000  N
  C105     1.0000 0.47940  0.46877  0.14021  Biso   1.000  C
  H121     1.0000 0.45220  0.47760  0.15430  Biso   1.000  H
  C106     1.0000 0.43268  0.62410  0.04077  Biso   1.000  C
  H122     1.0000 0.41130  0.62450  0.06440  Biso   1.000  H
  Cu54     1.0000 0.98487  0.70426  0.67448  Biso   1.000  Cu
  Cl54     1.0000 0.92425  0.69420  0.62938  Biso   1.000  Cl
  N160     1.0000 0.99803  0.76167  0.64346  Biso   1.000  N
  N161     1.0000 0.96616  0.65351  0.71288  Biso   1.000  N
  N162     1.0000 0.00507  0.81653  0.59795  Biso   1.000  N
  C107     1.0000 0.97940  0.78123  0.60979  Biso   1.000  C
  H123     1.0000 0.95220  0.77240  0.59570  Biso   1.000  H
  C108     1.0000 0.93268  0.62590  0.70923  Biso   1.000  C
  H124     1.0000 0.91130  0.62550  0.68560  Biso   1.000  H
  Cu55     1.0000 0.76513  0.20426  0.57552  Biso   1.000  Cu
  Cl55     1.0000 0.82575  0.19420  0.62062  Biso   1.000  Cl
  N163     1.0000 0.75197  0.26167  0.60654  Biso   1.000  N
  N164     1.0000 0.78384  0.15351  0.53712  Biso   1.000  N
  N165     1.0000 0.74493  0.31653  0.65205  Biso   1.000  N
  C109     1.0000 0.77060  0.28123  0.64021  Biso   1.000  C
  H125     1.0000 0.79780  0.27240  0.65430  Biso   1.000  H
  C110     1.0000 0.81732  0.12590  0.54077  Biso   1.000  C
  H126     1.0000 0.83870  0.12550  0.56440  Biso   1.000  H
  Cu56     1.0000 0.26513  0.04574  0.17448  Biso   1.000  Cu
  Cl56     1.0000 0.32575  0.05580  0.12938  Biso   1.000  Cl
  N166     1.0000 0.25197  0.98833  0.14346  Biso   1.000  N
  N167     1.0000 0.28384  0.09649  0.21288  Biso   1.000  N
  N168     1.0000 0.24493  0.93347  0.09795  Biso   1.000  N
  C111     1.0000 0.27060  0.96877  0.10979  Biso   1.000  C
  H127     1.0000 0.29780  0.97760  0.09570  Biso   1.000  H
  C112     1.0000 0.31732  0.12410  0.20923  Biso   1.000  C
  H128     1.0000 0.33870  0.12450  0.18560  Biso   1.000  H
  Cu57     1.0000 0.57552  0.48487  0.04574  Biso   1.000  Cu
  Cl57     1.0000 0.62062  0.42425  0.05580  Biso   1.000  Cl
  N169     1.0000 0.60654  0.49803  0.98833  Biso   1.000  N
  N170     1.0000 0.53712  0.46616  0.09649  Biso   1.000  N
  N171     1.0000 0.65205  0.50507  0.93347  Biso   1.000  N
  C113     1.0000 0.64021  0.47940  0.96877  Biso   1.000  C
  H129     1.0000 0.65430  0.45220  0.97760  Biso   1.000  H
  C114     1.0000 0.54077  0.43268  0.12410  Biso   1.000  C
  H130     1.0000 0.56440  0.41130  0.12450  Biso   1.000  H
  Cu58     1.0000 0.17448  0.98487  0.20426  Biso   1.000  Cu
  Cl58     1.0000 0.12938  0.92425  0.19420  Biso   1.000  Cl
  N172     1.0000 0.14346  0.99803  0.26167  Biso   1.000  N
  N173     1.0000 0.21288  0.96616  0.15351  Biso   1.000  N
  N174     1.0000 0.09795  0.00507  0.31653  Biso   1.000  N
  C115     1.0000 0.10979  0.97940  0.28123  Biso   1.000  C
  H131     1.0000 0.09570  0.95220  0.27240  Biso   1.000  H
  C116     1.0000 0.20923  0.93268  0.12590  Biso   1.000  C
  H132     1.0000 0.18560  0.91130  0.12550  Biso   1.000  H
  Cu59     1.0000 0.07552  0.76513  0.70426  Biso   1.000  Cu
  Cl59     1.0000 0.12062  0.82575  0.69420  Biso   1.000  Cl
  N175     1.0000 0.10654  0.75197  0.76167  Biso   1.000  N
  N176     1.0000 0.03712  0.78384  0.65351  Biso   1.000  N
  N177     1.0000 0.15205  0.74493  0.81653  Biso   1.000  N
  C117     1.0000 0.14021  0.77060  0.78123  Biso   1.000  C
  H133     1.0000 0.15430  0.79780  0.77240  Biso   1.000  H
  C118     1.0000 0.04077  0.81732  0.62590  Biso   1.000  C
  H134     1.0000 0.06440  0.83870  0.62550  Biso   1.000  H
  Cu60     1.0000 0.67448  0.26513  0.54574  Biso   1.000  Cu
  Cl60     1.0000 0.62938  0.32575  0.55580  Biso   1.000  Cl
  N178     1.0000 0.64346  0.25197  0.48833  Biso   1.000  N
  N179     1.0000 0.71288  0.28384  0.59649  Biso   1.000  N
  N180     1.0000 0.59795  0.24493  0.43347  Biso   1.000  N
  C119     1.0000 0.60979  0.27060  0.46877  Biso   1.000  C
  H135     1.0000 0.59570  0.29780  0.47760  Biso   1.000  H
  C120     1.0000 0.70923  0.31732  0.62410  Biso   1.000  C
  H136     1.0000 0.68560  0.33870  0.62450  Biso   1.000  H
  Cu61     1.0000 0.32552  0.79574  0.01513  Biso   1.000  Cu
  Cl61     1.0000 0.37062  0.80580  0.07575  Biso   1.000  Cl
  N181     1.0000 0.35654  0.73833  0.00197  Biso   1.000  N
  N182     1.0000 0.28712  0.84649  0.03384  Biso   1.000  N
  N183     1.0000 0.40205  0.68347  0.99493  Biso   1.000  N
  C121     1.0000 0.39021  0.71877  0.02060  Biso   1.000  C
  H137     1.0000 0.40430  0.72760  0.04780  Biso   1.000  H
  C122     1.0000 0.29077  0.87410  0.06732  Biso   1.000  C
  H138     1.0000 0.31440  0.87450  0.08870  Biso   1.000  H
  Cu62     1.0000 0.92448  0.95426  0.51513  Biso   1.000  Cu
  Cl62     1.0000 0.87938  0.94420  0.57575  Biso   1.000  Cl
  N184     1.0000 0.89346  0.01167  0.50197  Biso   1.000  N
  N185     1.0000 0.96288  0.90351  0.53384  Biso   1.000  N
  N186     1.0000 0.84795  0.06653  0.49493  Biso   1.000  N
  C123     1.0000 0.85979  0.03123  0.52060  Biso   1.000  C
  H139     1.0000 0.84570  0.02240  0.54780  Biso   1.000  H
  C124     1.0000 0.95923  0.87590  0.56732  Biso   1.000  C
  H140     1.0000 0.93560  0.87550  0.58870  Biso   1.000  H
  Cu63     1.0000 0.82552  0.45426  0.73487  Biso   1.000  Cu
  Cl63     1.0000 0.87062  0.44420  0.67425  Biso   1.000  Cl
  N187     1.0000 0.85654  0.51167  0.74803  Biso   1.000  N
  N188     1.0000 0.78712  0.40351  0.71616  Biso   1.000  N
  N189     1.0000 0.90205  0.56653  0.75507  Biso   1.000  N
  C125     1.0000 0.89021  0.53123  0.72940  Biso   1.000  C
  H141     1.0000 0.90430  0.52240  0.70220  Biso   1.000  H
  C126     1.0000 0.79077  0.37590  0.68268  Biso   1.000  C
  H142     1.0000 0.81440  0.37550  0.66130  Biso   1.000  H
  Cu64     1.0000 0.42448  0.29574  0.23487  Biso   1.000  Cu
  Cl64     1.0000 0.37938  0.30580  0.17425  Biso   1.000  Cl
  N190     1.0000 0.39346  0.23833  0.24803  Biso   1.000  N
  N191     1.0000 0.46288  0.34649  0.21616  Biso   1.000  N
  N192     1.0000 0.34795  0.18347  0.25507  Biso   1.000  N
  C127     1.0000 0.35979  0.21877  0.22940  Biso   1.000  C
  H143     1.0000 0.34570  0.22760  0.20220  Biso   1.000  H
  C128     1.0000 0.45923  0.37410  0.18268  Biso   1.000  C
  H144     1.0000 0.43560  0.37450  0.16130  Biso   1.000  H
  Cu65     1.0000 0.29574  0.73487  0.92448  Biso   1.000  Cu
  Cl65     1.0000 0.30580  0.67425  0.87938  Biso   1.000  Cl
  N193     1.0000 0.23833  0.74803  0.89346  Biso   1.000  N
  N194     1.0000 0.34649  0.71616  0.96288  Biso   1.000  N
  N195     1.0000 0.18347  0.75507  0.84795  Biso   1.000  N
  C129     1.0000 0.21877  0.72940  0.85979  Biso   1.000  C
  H145     1.0000 0.22760  0.70220  0.84570  Biso   1.000  H
  C130     1.0000 0.37410  0.68268  0.95923  Biso   1.000  C
  H146     1.0000 0.37450  0.66130  0.93560  Biso   1.000  H
  Cu66     1.0000 0.45426  0.23487  0.32552  Biso   1.000  Cu
  Cl66     1.0000 0.44420  0.17425  0.37062  Biso   1.000  Cl
  N196     1.0000 0.51167  0.24803  0.35654  Biso   1.000  N
  N197     1.0000 0.40351  0.21616  0.28712  Biso   1.000  N
  N198     1.0000 0.56653  0.25507  0.40205  Biso   1.000  N
  C131     1.0000 0.53123  0.22940  0.39021  Biso   1.000  C
  H147     1.0000 0.52240  0.20220  0.40430  Biso   1.000  H
  C132     1.0000 0.37590  0.18268  0.29077  Biso   1.000  C
  H148     1.0000 0.37550  0.16130  0.31440  Biso   1.000  H
  Cu67     1.0000 0.95426  0.01513  0.42448  Biso   1.000  Cu
  Cl67     1.0000 0.94420  0.07575  0.37938  Biso   1.000  Cl
  N199     1.0000 0.01167  0.00197  0.39346  Biso   1.000  N
  N200     1.0000 0.90351  0.03384  0.46288  Biso   1.000  N
  N201     1.0000 0.06653  0.99493  0.34795  Biso   1.000  N
  C133     1.0000 0.03123  0.02060  0.35979  Biso   1.000  C
  H149     1.0000 0.02240  0.04780  0.34570  Biso   1.000  H
  C134     1.0000 0.87590  0.06732  0.45923  Biso   1.000  C
  H150     1.0000 0.87550  0.08870  0.43560  Biso   1.000  H
  Cu68     1.0000 0.79574  0.51513  0.82552  Biso   1.000  Cu
  Cl68     1.0000 0.80580  0.57575  0.87062  Biso   1.000  Cl
  N202     1.0000 0.73833  0.50197  0.85654  Biso   1.000  N
  N203     1.0000 0.84649  0.53384  0.78712  Biso   1.000  N
  N204     1.0000 0.68347  0.49493  0.90205  Biso   1.000  N
  C135     1.0000 0.71877  0.52060  0.89021  Biso   1.000  C
  H151     1.0000 0.72760  0.54780  0.90430  Biso   1.000  H
  C136     1.0000 0.87410  0.56732  0.79077  Biso   1.000  C
  H152     1.0000 0.87450  0.58870  0.81440  Biso   1.000  H
  Cu69     1.0000 0.23487  0.82552  0.95426  Biso   1.000  Cu
  Cl69     1.0000 0.17425  0.87062  0.94420  Biso   1.000  Cl
  N205     1.0000 0.24803  0.85654  0.01167  Biso   1.000  N
  N206     1.0000 0.21616  0.78712  0.90351  Biso   1.000  N
  N207     1.0000 0.25507  0.90205  0.06653  Biso   1.000  N
  C137     1.0000 0.22940  0.89021  0.03123  Biso   1.000  C
  H153     1.0000 0.20220  0.90430  0.02240  Biso   1.000  H
  C138     1.0000 0.18268  0.79077  0.87590  Biso   1.000  C
  H154     1.0000 0.16130  0.81440  0.87550  Biso   1.000  H
  Cu70     1.0000 0.73487  0.42448  0.79574  Biso   1.000  Cu
  Cl70     1.0000 0.67425  0.37938  0.80580  Biso   1.000  Cl
  N208     1.0000 0.74803  0.39346  0.73833  Biso   1.000  N
  N209     1.0000 0.71616  0.46288  0.84649  Biso   1.000  N
  N210     1.0000 0.75507  0.34795  0.68347  Biso   1.000  N
  C139     1.0000 0.72940  0.35979  0.71877  Biso   1.000  C
  H155     1.0000 0.70220  0.34570  0.72760  Biso   1.000  H
  C140     1.0000 0.68268  0.45923  0.87410  Biso   1.000  C
  H156     1.0000 0.66130  0.43560  0.87450  Biso   1.000  H
  Cu71     1.0000 0.51513  0.32552  0.29574  Biso   1.000  Cu
  Cl71     1.0000 0.57575  0.37062  0.30580  Biso   1.000  Cl
  N211     1.0000 0.50197  0.35654  0.23833  Biso   1.000  N
  N212     1.0000 0.53384  0.28712  0.34649  Biso   1.000  N
  N213     1.0000 0.49493  0.40205  0.18347  Biso   1.000  N
  C141     1.0000 0.52060  0.39021  0.21877  Biso   1.000  C
  H157     1.0000 0.54780  0.40430  0.22760  Biso   1.000  H
  C142     1.0000 0.56732  0.29077  0.37410  Biso   1.000  C
  H158     1.0000 0.58870  0.31440  0.37450  Biso   1.000  H
  Cu72     1.0000 0.01513  0.92448  0.45426  Biso   1.000  Cu
  Cl72     1.0000 0.07575  0.87938  0.44420  Biso   1.000  Cl
  N214     1.0000 0.00197  0.89346  0.51167  Biso   1.000  N
  N215     1.0000 0.03384  0.96288  0.40351  Biso   1.000  N
  N216     1.0000 0.99493  0.84795  0.56653  Biso   1.000  N
  C143     1.0000 0.02060  0.85979  0.53123  Biso   1.000  C
  H159     1.0000 0.04780  0.84570  0.52240  Biso   1.000  H
  C144     1.0000 0.06732  0.95923  0.37590  Biso   1.000  C
  H160     1.0000 0.08870  0.93560  0.37550  Biso   1.000  H
  O17      1.0000 0.02604  0.72396  0.72396  Biso   1.000  O
  H161     1.0000 0.00970  0.74030  0.74030  Biso   1.000  H
  O18      1.0000 0.22396  0.02604  0.22396  Biso   1.000  O
  H162     1.0000 0.24030  0.00970  0.24030  Biso   1.000  H
  O19      1.0000 0.52604  0.52604  0.02604  Biso   1.000  O
  H163     1.0000 0.50970  0.50970  0.00970  Biso   1.000  H
  O20      1.0000 0.72396  0.22396  0.52604  Biso   1.000  O
  H164     1.0000 0.74030  0.24030  0.50970  Biso   1.000  H
  O21      1.0000 0.27604  0.77604  0.97396  Biso   1.000  O
  H165     1.0000 0.25970  0.75970  0.99030  Biso   1.000  H
  O22      1.0000 0.77604  0.47396  0.77604  Biso   1.000  O
  H166     1.0000 0.75970  0.49030  0.75970  Biso   1.000  H
  O23      1.0000 0.47396  0.27604  0.27604  Biso   1.000  O
  H167     1.0000 0.49030  0.25970  0.25970  Biso   1.000  H
  O24      1.0000 0.97396  0.97396  0.47396  Biso   1.000  O
  H168     1.0000 0.99030  0.99030  0.49030  Biso   1.000  H
  Cu73     1.0000 0.54574  0.07552  0.48487  Biso   1.000  Cu
  Cl73     1.0000 0.55580  0.12062  0.42425  Biso   1.000  Cl
  N217     1.0000 0.48833  0.10654  0.49803  Biso   1.000  N
  N218     1.0000 0.59649  0.03712  0.46616  Biso   1.000  N
  N219     1.0000 0.43347  0.15205  0.50507  Biso   1.000  N
  C145     1.0000 0.46877  0.14021  0.47940  Biso   1.000  C
  H169     1.0000 0.47760  0.15430  0.45220  Biso   1.000  H
  C146     1.0000 0.62410  0.04077  0.43268  Biso   1.000  C
  H170     1.0000 0.62450  0.06440  0.41130  Biso   1.000  H
  Cu74     1.0000 0.70426  0.67448  0.98487  Biso   1.000  Cu
  Cl74     1.0000 0.69420  0.62938  0.92425  Biso   1.000  Cl
  N220     1.0000 0.76167  0.64346  0.99803  Biso   1.000  N
  N221     1.0000 0.65351  0.71288  0.96616  Biso   1.000  N
  N222     1.0000 0.81653  0.59795  0.00507  Biso   1.000  N
  C147     1.0000 0.78123  0.60979  0.97940  Biso   1.000  C
  H171     1.0000 0.77240  0.59570  0.95220  Biso   1.000  H
  C148     1.0000 0.62590  0.70923  0.93268  Biso   1.000  C
  H172     1.0000 0.62550  0.68560  0.91130  Biso   1.000  H
  Cu75     1.0000 0.20426  0.57552  0.76513  Biso   1.000  Cu
  Cl75     1.0000 0.19420  0.62062  0.82575  Biso   1.000  Cl
  N223     1.0000 0.26167  0.60654  0.75197  Biso   1.000  N
  N224     1.0000 0.15351  0.53712  0.78384  Biso   1.000  N
  N225     1.0000 0.31653  0.65205  0.74493  Biso   1.000  N
  C149     1.0000 0.28123  0.64021  0.77060  Biso   1.000  C
  H173     1.0000 0.27240  0.65430  0.79780  Biso   1.000  H
  C150     1.0000 0.12590  0.54077  0.81732  Biso   1.000  C
  H174     1.0000 0.12550  0.56440  0.83870  Biso   1.000  H
  Cu76     1.0000 0.04574  0.17448  0.26513  Biso   1.000  Cu
  Cl76     1.0000 0.05580  0.12938  0.32575  Biso   1.000  Cl
  N226     1.0000 0.98833  0.14346  0.25197  Biso   1.000  N
  N227     1.0000 0.09649  0.21288  0.28384  Biso   1.000  N
  N228     1.0000 0.93347  0.09795  0.24493  Biso   1.000  N
  C151     1.0000 0.96877  0.10979  0.27060  Biso   1.000  C
  H175     1.0000 0.97760  0.09570  0.29780  Biso   1.000  H
  C152     1.0000 0.12410  0.20923  0.31732  Biso   1.000  C
  H176     1.0000 0.12450  0.18560  0.33870  Biso   1.000  H
  Cu77     1.0000 0.48487  0.04574  0.57552  Biso   1.000  Cu
  Cl77     1.0000 0.42425  0.05580  0.62062  Biso   1.000  Cl
  N229     1.0000 0.49803  0.98833  0.60654  Biso   1.000  N
  N230     1.0000 0.46616  0.09649  0.53712  Biso   1.000  N
  N231     1.0000 0.50507  0.93347  0.65205  Biso   1.000  N
  C153     1.0000 0.47940  0.96877  0.64021  Biso   1.000  C
  H177     1.0000 0.45220  0.97760  0.65430  Biso   1.000  H
  C154     1.0000 0.43268  0.12410  0.54077  Biso   1.000  C
  H178     1.0000 0.41130  0.12450  0.56440  Biso   1.000  H
  Cu78     1.0000 0.98487  0.20426  0.17448  Biso   1.000  Cu
  Cl78     1.0000 0.92425  0.19420  0.12938  Biso   1.000  Cl
  N232     1.0000 0.99803  0.26167  0.14346  Biso   1.000  N
  N233     1.0000 0.96616  0.15351  0.21288  Biso   1.000  N
  N234     1.0000 0.00507  0.31653  0.09795  Biso   1.000  N
  C155     1.0000 0.97940  0.28123  0.10979  Biso   1.000  C
  H179     1.0000 0.95220  0.27240  0.09570  Biso   1.000  H
  C156     1.0000 0.93268  0.12590  0.20923  Biso   1.000  C
  H180     1.0000 0.91130  0.12550  0.18560  Biso   1.000  H
  Cu79     1.0000 0.76513  0.70426  0.07552  Biso   1.000  Cu
  Cl79     1.0000 0.82575  0.69420  0.12062  Biso   1.000  Cl
  N235     1.0000 0.75197  0.76167  0.10654  Biso   1.000  N
  N236     1.0000 0.78384  0.65351  0.03712  Biso   1.000  N
  N237     1.0000 0.74493  0.81653  0.15205  Biso   1.000  N
  C157     1.0000 0.77060  0.78123  0.14021  Biso   1.000  C
  H181     1.0000 0.79780  0.77240  0.15430  Biso   1.000  H
  C158     1.0000 0.81732  0.62590  0.04077  Biso   1.000  C
  H182     1.0000 0.83870  0.62550  0.06440  Biso   1.000  H
  Cu80     1.0000 0.26513  0.54574  0.67448  Biso   1.000  Cu
  Cl80     1.0000 0.32575  0.55580  0.62938  Biso   1.000  Cl
  N238     1.0000 0.25197  0.48833  0.64346  Biso   1.000  N
  N239     1.0000 0.28384  0.59649  0.71288  Biso   1.000  N
  N240     1.0000 0.24493  0.43347  0.59795  Biso   1.000  N
  C159     1.0000 0.27060  0.46877  0.60979  Biso   1.000  C
  H183     1.0000 0.29780  0.47760  0.59570  Biso   1.000  H
  C160     1.0000 0.31732  0.62410  0.70923  Biso   1.000  C
  H184     1.0000 0.33870  0.62450  0.68560  Biso   1.000  H
  Cu81     1.0000 0.57552  0.98487  0.54574  Biso   1.000  Cu
  Cl81     1.0000 0.62062  0.92425  0.55580  Biso   1.000  Cl
  N241     1.0000 0.60654  0.99803  0.48833  Biso   1.000  N
  N242     1.0000 0.53712  0.96616  0.59649  Biso   1.000  N
  N243     1.0000 0.65205  0.00507  0.43347  Biso   1.000  N
  C161     1.0000 0.64021  0.97940  0.46877  Biso   1.000  C
  H185     1.0000 0.65430  0.95220  0.47760  Biso   1.000  H
  C162     1.0000 0.54077  0.93268  0.62410  Biso   1.000  C
  H186     1.0000 0.56440  0.91130  0.62450  Biso   1.000  H
  Cu82     1.0000 0.17448  0.48487  0.70426  Biso   1.000  Cu
  Cl82     1.0000 0.12938  0.42425  0.69420  Biso   1.000  Cl
  N244     1.0000 0.14346  0.49803  0.76167  Biso   1.000  N
  N245     1.0000 0.21288  0.46616  0.65351  Biso   1.000  N
  N246     1.0000 0.09795  0.50507  0.81653  Biso   1.000  N
  C163     1.0000 0.10979  0.47940  0.78123  Biso   1.000  C
  H187     1.0000 0.09570  0.45220  0.77240  Biso   1.000  H
  C164     1.0000 0.20923  0.43268  0.62590  Biso   1.000  C
  H188     1.0000 0.18560  0.41130  0.62550  Biso   1.000  H
  Cu83     1.0000 0.07552  0.26513  0.20426  Biso   1.000  Cu
  Cl83     1.0000 0.12062  0.32575  0.19420  Biso   1.000  Cl
  N247     1.0000 0.10654  0.25197  0.26167  Biso   1.000  N
  N248     1.0000 0.03712  0.28384  0.15351  Biso   1.000  N
  N249     1.0000 0.15205  0.24493  0.31653  Biso   1.000  N
  C165     1.0000 0.14021  0.27060  0.28123  Biso   1.000  C
  H189     1.0000 0.15430  0.29780  0.27240  Biso   1.000  H
  C166     1.0000 0.04077  0.31732  0.12590  Biso   1.000  C
  H190     1.0000 0.06440  0.33870  0.12550  Biso   1.000  H
  Cu84     1.0000 0.67448  0.76513  0.04574  Biso   1.000  Cu
  Cl84     1.0000 0.62938  0.82575  0.05580  Biso   1.000  Cl
  N250     1.0000 0.64346  0.75197  0.98833  Biso   1.000  N
  N251     1.0000 0.71288  0.78384  0.09649  Biso   1.000  N
  N252     1.0000 0.59795  0.74493  0.93347  Biso   1.000  N
  C167     1.0000 0.60979  0.77060  0.96877  Biso   1.000  C
  H191     1.0000 0.59570  0.79780  0.97760  Biso   1.000  H
  C168     1.0000 0.70923  0.81732  0.12410  Biso   1.000  C
  H192     1.0000 0.68560  0.83870  0.12450  Biso   1.000  H
  Cu85     1.0000 0.32552  0.29574  0.51513  Biso   1.000  Cu
  Cl85     1.0000 0.37062  0.30580  0.57575  Biso   1.000  Cl
  N253     1.0000 0.35654  0.23833  0.50197  Biso   1.000  N
  N254     1.0000 0.28712  0.34649  0.53384  Biso   1.000  N
  N255     1.0000 0.40205  0.18347  0.49493  Biso   1.000  N
  C169     1.0000 0.39021  0.21877  0.52060  Biso   1.000  C
  H193     1.0000 0.40430  0.22760  0.54780  Biso   1.000  H
  C170     1.0000 0.29077  0.37410  0.56732  Biso   1.000  C
  H194     1.0000 0.31440  0.37450  0.58870  Biso   1.000  H
  Cu86     1.0000 0.92448  0.45426  0.01513  Biso   1.000  Cu
  Cl86     1.0000 0.87938  0.44420  0.07575  Biso   1.000  Cl
  N256     1.0000 0.89346  0.51167  0.00197  Biso   1.000  N
  N257     1.0000 0.96288  0.40351  0.03384  Biso   1.000  N
  N258     1.0000 0.84795  0.56653  0.99493  Biso   1.000  N
  C171     1.0000 0.85979  0.53123  0.02060  Biso   1.000  C
  H195     1.0000 0.84570  0.52240  0.04780  Biso   1.000  H
  C172     1.0000 0.95923  0.37590  0.06732  Biso   1.000  C
  H196     1.0000 0.93560  0.37550  0.08870  Biso   1.000  H
  Cu87     1.0000 0.82552  0.95426  0.23487  Biso   1.000  Cu
  Cl87     1.0000 0.87062  0.94420  0.17425  Biso   1.000  Cl
  N259     1.0000 0.85654  0.01167  0.24803  Biso   1.000  N
  N260     1.0000 0.78712  0.90351  0.21616  Biso   1.000  N
  N261     1.0000 0.90205  0.06653  0.25507  Biso   1.000  N
  C173     1.0000 0.89021  0.03123  0.22940  Biso   1.000  C
  H197     1.0000 0.90430  0.02240  0.20220  Biso   1.000  H
  C174     1.0000 0.79077  0.87590  0.18268  Biso   1.000  C
  H198     1.0000 0.81440  0.87550  0.16130  Biso   1.000  H
  Cu88     1.0000 0.42448  0.79574  0.73487  Biso   1.000  Cu
  Cl88     1.0000 0.37938  0.80580  0.67425  Biso   1.000  Cl
  N262     1.0000 0.39346  0.73833  0.74803  Biso   1.000  N
  N263     1.0000 0.46288  0.84649  0.71616  Biso   1.000  N
  N264     1.0000 0.34795  0.68347  0.75507  Biso   1.000  N
  C175     1.0000 0.35979  0.71877  0.72940  Biso   1.000  C
  H199     1.0000 0.34570  0.72760  0.70220  Biso   1.000  H
  C176     1.0000 0.45923  0.87410  0.68268  Biso   1.000  C
  H200     1.0000 0.43560  0.87450  0.66130  Biso   1.000  H
  Cu89     1.0000 0.29574  0.23487  0.42448  Biso   1.000  Cu
  Cl89     1.0000 0.30580  0.17425  0.37938  Biso   1.000  Cl
  N265     1.0000 0.23833  0.24803  0.39346  Biso   1.000  N
  N266     1.0000 0.34649  0.21616  0.46288  Biso   1.000  N
  N267     1.0000 0.18347  0.25507  0.34795  Biso   1.000  N
  C177     1.0000 0.21877  0.22940  0.35979  Biso   1.000  C
  H201     1.0000 0.22760  0.20220  0.34570  Biso   1.000  H
  C178     1.0000 0.37410  0.18268  0.45923  Biso   1.000  C
  H202     1.0000 0.37450  0.16130  0.43560  Biso   1.000  H
  Cu90     1.0000 0.45426  0.73487  0.82552  Biso   1.000  Cu
  Cl90     1.0000 0.44420  0.67425  0.87062  Biso   1.000  Cl
  N268     1.0000 0.51167  0.74803  0.85654  Biso   1.000  N
  N269     1.0000 0.40351  0.71616  0.78712  Biso   1.000  N
  N270     1.0000 0.56653  0.75507  0.90205  Biso   1.000  N
  C179     1.0000 0.53123  0.72940  0.89021  Biso   1.000  C
  H203     1.0000 0.52240  0.70220  0.90430  Biso   1.000  H
  C180     1.0000 0.37590  0.68268  0.79077  Biso   1.000  C
  H204     1.0000 0.37550  0.66130  0.81440  Biso   1.000  H
  Cu91     1.0000 0.95426  0.51513  0.92448  Biso   1.000  Cu
  Cl91     1.0000 0.94420  0.57575  0.87938  Biso   1.000  Cl
  N271     1.0000 0.01167  0.50197  0.89346  Biso   1.000  N
  N272     1.0000 0.90351  0.53384  0.96288  Biso   1.000  N
  N273     1.0000 0.06653  0.49493  0.84795  Biso   1.000  N
  C181     1.0000 0.03123  0.52060  0.85979  Biso   1.000  C
  H205     1.0000 0.02240  0.54780  0.84570  Biso   1.000  H
  C182     1.0000 0.87590  0.56732  0.95923  Biso   1.000  C
  H206     1.0000 0.87550  0.58870  0.93560  Biso   1.000  H
  Cu92     1.0000 0.79574  0.01513  0.32552  Biso   1.000  Cu
  Cl92     1.0000 0.80580  0.07575  0.37062  Biso   1.000  Cl
  N274     1.0000 0.73833  0.00197  0.35654  Biso   1.000  N
  N275     1.0000 0.84649  0.03384  0.28712  Biso   1.000  N
  N276     1.0000 0.68347  0.99493  0.40205  Biso   1.000  N
  C183     1.0000 0.71877  0.02060  0.39021  Biso   1.000  C
  H207     1.0000 0.72760  0.04780  0.40430  Biso   1.000  H
  C184     1.0000 0.87410  0.06732  0.29077  Biso   1.000  C
  H208     1.0000 0.87450  0.08870  0.31440  Biso   1.000  H
  Cu93     1.0000 0.23487  0.32552  0.45426  Biso   1.000  Cu
  Cl93     1.0000 0.17425  0.37062  0.44420  Biso   1.000  Cl
  N277     1.0000 0.24803  0.35654  0.51167  Biso   1.000  N
  N278     1.0000 0.21616  0.28712  0.40351  Biso   1.000  N
  N279     1.0000 0.25507  0.40205  0.56653  Biso   1.000  N
  C185     1.0000 0.22940  0.39021  0.53123  Biso   1.000  C
  H209     1.0000 0.20220  0.40430  0.52240  Biso   1.000  H
  C186     1.0000 0.18268  0.29077  0.37590  Biso   1.000  C
  H210     1.0000 0.16130  0.31440  0.37550  Biso   1.000  H
  Cu94     1.0000 0.73487  0.92448  0.29574  Biso   1.000  Cu
  Cl94     1.0000 0.67425  0.87938  0.30580  Biso   1.000  Cl
  N280     1.0000 0.74803  0.89346  0.23833  Biso   1.000  N
  N281     1.0000 0.71616  0.96288  0.34649  Biso   1.000  N
  N282     1.0000 0.75507  0.84795  0.18347  Biso   1.000  N
  C187     1.0000 0.72940  0.85979  0.21877  Biso   1.000  C
  H211     1.0000 0.70220  0.84570  0.22760  Biso   1.000  H
  C188     1.0000 0.68268  0.95923  0.37410  Biso   1.000  C
  H212     1.0000 0.66130  0.93560  0.37450  Biso   1.000  H
  Cu95     1.0000 0.51513  0.82552  0.79574  Biso   1.000  Cu
  Cl95     1.0000 0.57575  0.87062  0.80580  Biso   1.000  Cl
  N283     1.0000 0.50197  0.85654  0.73833  Biso   1.000  N
  N284     1.0000 0.53384  0.78712  0.84649  Biso   1.000  N
  N285     1.0000 0.49493  0.90205  0.68347  Biso   1.000  N
  C189     1.0000 0.52060  0.89021  0.71877  Biso   1.000  C
  H213     1.0000 0.54780  0.90430  0.72760  Biso   1.000  H
  C190     1.0000 0.56732  0.79077  0.87410  Biso   1.000  C
  H214     1.0000 0.58870  0.81440  0.87450  Biso   1.000  H
  Cu96     1.0000 0.01513  0.42448  0.95426  Biso   1.000  Cu
  Cl96     1.0000 0.07575  0.37938  0.94420  Biso   1.000  Cl
  N286     1.0000 0.00197  0.39346  0.01167  Biso   1.000  N
  N287     1.0000 0.03384  0.46288  0.90351  Biso   1.000  N
  N288     1.0000 0.99493  0.34795  0.06653  Biso   1.000  N
  C191     1.0000 0.02060  0.35979  0.03123  Biso   1.000  C
  H215     1.0000 0.04780  0.34570  0.02240  Biso   1.000  H
  C192     1.0000 0.06732  0.45923  0.87590  Biso   1.000  C
  H216     1.0000 0.08870  0.43560  0.87550  Biso   1.000  H
  O25      1.0000 0.02604  0.22396  0.22396  Biso   1.000  O
  H217     1.0000 0.00970  0.24030  0.24030  Biso   1.000  H
  O26      1.0000 0.52604  0.02604  0.52604  Biso   1.000  O
  H218     1.0000 0.50970  0.00970  0.50970  Biso   1.000  H
  O27      1.0000 0.72396  0.72396  0.02604  Biso   1.000  O
  H219     1.0000 0.74030  0.74030  0.00970  Biso   1.000  H
  O28      1.0000 0.22396  0.52604  0.72396  Biso   1.000  O
  H220     1.0000 0.24030  0.50970  0.74030  Biso   1.000  H
  O29      1.0000 0.27604  0.27604  0.47396  Biso   1.000  O
  H221     1.0000 0.25970  0.25970  0.49030  Biso   1.000  H
  O30      1.0000 0.97396  0.47396  0.97396  Biso   1.000  O
  H222     1.0000 0.99030  0.49030  0.99030  Biso   1.000  H
  O31      1.0000 0.77604  0.97396  0.27604  Biso   1.000  O
  H223     1.0000 0.75970  0.99030  0.25970  Biso   1.000  H
  O32      1.0000 0.47396  0.77604  0.77604  Biso   1.000  O
  H224     1.0000 0.49030  0.75970  0.75970  Biso   1.000  H
  Cu97     1.0000 0.95426  0.42448  0.51513  Biso   1.000  Cu
  Cl97     1.0000 0.94420  0.37938  0.57575  Biso   1.000  Cl
  N289     1.0000 0.01167  0.39346  0.50197  Biso   1.000  N
  N290     1.0000 0.90351  0.46288  0.53384  Biso   1.000  N
  N291     1.0000 0.06653  0.34795  0.49493  Biso   1.000  N
  C193     1.0000 0.03123  0.35979  0.52060  Biso   1.000  C
  H225     1.0000 0.02240  0.34570  0.54780  Biso   1.000  H
  C194     1.0000 0.87590  0.45923  0.56732  Biso   1.000  C
  H226     1.0000 0.87550  0.43560  0.58870  Biso   1.000  H
  Cu98     1.0000 0.79574  0.82552  0.01513  Biso   1.000  Cu
  Cl98     1.0000 0.80580  0.87062  0.07575  Biso   1.000  Cl
  N292     1.0000 0.73833  0.85654  0.00197  Biso   1.000  N
  N293     1.0000 0.84649  0.78712  0.03384  Biso   1.000  N
  N294     1.0000 0.68347  0.90205  0.99493  Biso   1.000  N
  C195     1.0000 0.71877  0.89021  0.02060  Biso   1.000  C
  H227     1.0000 0.72760  0.90430  0.04780  Biso   1.000  H
  C196     1.0000 0.87410  0.79077  0.06732  Biso   1.000  C
  H228     1.0000 0.87450  0.81440  0.08870  Biso   1.000  H
  Cu99     1.0000 0.29574  0.92448  0.23487  Biso   1.000  Cu
  Cl99     1.0000 0.30580  0.87938  0.17425  Biso   1.000  Cl
  N295     1.0000 0.23833  0.89346  0.24803  Biso   1.000  N
  N296     1.0000 0.34649  0.96288  0.21616  Biso   1.000  N
  N297     1.0000 0.18347  0.84795  0.25507  Biso   1.000  N
  C197     1.0000 0.21877  0.85979  0.22940  Biso   1.000  C
  H229     1.0000 0.22760  0.84570  0.20220  Biso   1.000  H
  C198     1.0000 0.37410  0.95923  0.18268  Biso   1.000  C
  H230     1.0000 0.37450  0.93560  0.16130  Biso   1.000  H
  Cu100    1.0000 0.45426  0.32552  0.73487  Biso   1.000  Cu
  Cl100    1.0000 0.44420  0.37062  0.67425  Biso   1.000  Cl
  N298     1.0000 0.51167  0.35654  0.74803  Biso   1.000  N
  N299     1.0000 0.40351  0.28712  0.71616  Biso   1.000  N
  N300     1.0000 0.56653  0.40205  0.75507  Biso   1.000  N
  C199     1.0000 0.53123  0.39021  0.72940  Biso   1.000  C
  H231     1.0000 0.52240  0.40430  0.70220  Biso   1.000  H
  C200     1.0000 0.37590  0.29077  0.68268  Biso   1.000  C
  H232     1.0000 0.37550  0.31440  0.66130  Biso   1.000  H
  Cu101    1.0000 0.01513  0.45426  0.42448  Biso   1.000  Cu
  Cl101    1.0000 0.07575  0.44420  0.37938  Biso   1.000  Cl
  N301     1.0000 0.00197  0.51167  0.39346  Biso   1.000  N
  N302     1.0000 0.03384  0.40351  0.46288  Biso   1.000  N
  N303     1.0000 0.99493  0.56653  0.34795  Biso   1.000  N
  C201     1.0000 0.02060  0.53123  0.35979  Biso   1.000  C
  H233     1.0000 0.04780  0.52240  0.34570  Biso   1.000  H
  C202     1.0000 0.06732  0.37590  0.45923  Biso   1.000  C
  H234     1.0000 0.08870  0.37550  0.43560  Biso   1.000  H
  Cu102    1.0000 0.51513  0.29574  0.82552  Biso   1.000  Cu
  Cl102    1.0000 0.57575  0.30580  0.87062  Biso   1.000  Cl
  N304     1.0000 0.50197  0.23833  0.85654  Biso   1.000  N
  N305     1.0000 0.53384  0.34649  0.78712  Biso   1.000  N
  N306     1.0000 0.49493  0.18347  0.90205  Biso   1.000  N
  C203     1.0000 0.52060  0.21877  0.89021  Biso   1.000  C
  H235     1.0000 0.54780  0.22760  0.90430  Biso   1.000  H
  C204     1.0000 0.56732  0.37410  0.79077  Biso   1.000  C
  H236     1.0000 0.58870  0.37450  0.81440  Biso   1.000  H
  Cu103    1.0000 0.73487  0.79574  0.92448  Biso   1.000  Cu
  Cl103    1.0000 0.67425  0.80580  0.87938  Biso   1.000  Cl
  N307     1.0000 0.74803  0.73833  0.89346  Biso   1.000  N
  N308     1.0000 0.71616  0.84649  0.96288  Biso   1.000  N
  N309     1.0000 0.75507  0.68347  0.84795  Biso   1.000  N
  C205     1.0000 0.72940  0.71877  0.85979  Biso   1.000  C
  H237     1.0000 0.70220  0.72760  0.84570  Biso   1.000  H
  C206     1.0000 0.68268  0.87410  0.95923  Biso   1.000  C
  H238     1.0000 0.66130  0.87450  0.93560  Biso   1.000  H
  Cu104    1.0000 0.23487  0.95426  0.32552  Biso   1.000  Cu
  Cl104    1.0000 0.17425  0.94420  0.37062  Biso   1.000  Cl
  N310     1.0000 0.24803  0.01167  0.35654  Biso   1.000  N
  N311     1.0000 0.21616  0.90351  0.28712  Biso   1.000  N
  N312     1.0000 0.25507  0.06653  0.40205  Biso   1.000  N
  C207     1.0000 0.22940  0.03123  0.39021  Biso   1.000  C
  H239     1.0000 0.20220  0.02240  0.40430  Biso   1.000  H
  C208     1.0000 0.18268  0.87590  0.29077  Biso   1.000  C
  H240     1.0000 0.16130  0.87550  0.31440  Biso   1.000  H
  Cu105    1.0000 0.92448  0.51513  0.45426  Biso   1.000  Cu
  Cl105    1.0000 0.87938  0.57575  0.44420  Biso   1.000  Cl
  N313     1.0000 0.89346  0.50197  0.51167  Biso   1.000  N
  N314     1.0000 0.96288  0.53384  0.40351  Biso   1.000  N
  N315     1.0000 0.84795  0.49493  0.56653  Biso   1.000  N
  C209     1.0000 0.85979  0.52060  0.53123  Biso   1.000  C
  H241     1.0000 0.84570  0.54780  0.52240  Biso   1.000  H
  C210     1.0000 0.95923  0.56732  0.37590  Biso   1.000  C
  H242     1.0000 0.93560  0.58870  0.37550  Biso   1.000  H
  Cu106    1.0000 0.32552  0.01513  0.29574  Biso   1.000  Cu
  Cl106    1.0000 0.37062  0.07575  0.30580  Biso   1.000  Cl
  N316     1.0000 0.35654  0.00197  0.23833  Biso   1.000  N
  N317     1.0000 0.28712  0.03384  0.34649  Biso   1.000  N
  N318     1.0000 0.40205  0.99493  0.18347  Biso   1.000  N
  C211     1.0000 0.39021  0.02060  0.21877  Biso   1.000  C
  H243     1.0000 0.40430  0.04780  0.22760  Biso   1.000  H
  C212     1.0000 0.29077  0.06732  0.37410  Biso   1.000  C
  H244     1.0000 0.31440  0.08870  0.37450  Biso   1.000  H
  Cu107    1.0000 0.42448  0.23487  0.79574  Biso   1.000  Cu
  Cl107    1.0000 0.37938  0.17425  0.80580  Biso   1.000  Cl
  N319     1.0000 0.39346  0.24803  0.73833  Biso   1.000  N
  N320     1.0000 0.46288  0.21616  0.84649  Biso   1.000  N
  N321     1.0000 0.34795  0.25507  0.68347  Biso   1.000  N
  C213     1.0000 0.35979  0.22940  0.71877  Biso   1.000  C
  H245     1.0000 0.34570  0.20220  0.72760  Biso   1.000  H
  C214     1.0000 0.45923  0.18268  0.87410  Biso   1.000  C
  H246     1.0000 0.43560  0.16130  0.87450  Biso   1.000  H
  Cu108    1.0000 0.82552  0.73487  0.95426  Biso   1.000  Cu
  Cl108    1.0000 0.87062  0.67425  0.94420  Biso   1.000  Cl
  N322     1.0000 0.85654  0.74803  0.01167  Biso   1.000  N
  N323     1.0000 0.78712  0.71616  0.90351  Biso   1.000  N
  N324     1.0000 0.90205  0.75507  0.06653  Biso   1.000  N
  C215     1.0000 0.89021  0.72940  0.03123  Biso   1.000  C
  H247     1.0000 0.90430  0.70220  0.02240  Biso   1.000  H
  C216     1.0000 0.79077  0.68268  0.87590  Biso   1.000  C
  H248     1.0000 0.81440  0.66130  0.87550  Biso   1.000  H
  Cu109    1.0000 0.17448  0.20426  0.48487  Biso   1.000  Cu
  Cl109    1.0000 0.12938  0.19420  0.42425  Biso   1.000  Cl
  N325     1.0000 0.14346  0.26167  0.49803  Biso   1.000  N
  N326     1.0000 0.21288  0.15351  0.46616  Biso   1.000  N
  N327     1.0000 0.09795  0.31653  0.50507  Biso   1.000  N
  C217     1.0000 0.10979  0.28123  0.47940  Biso   1.000  C
  H249     1.0000 0.09570  0.27240  0.45220  Biso   1.000  H
  C218     1.0000 0.20923  0.12590  0.43268  Biso   1.000  C
  H250     1.0000 0.18560  0.12550  0.41130  Biso   1.000  H
  Cu110    1.0000 0.57552  0.04574  0.98487  Biso   1.000  Cu
  Cl110    1.0000 0.62062  0.05580  0.92425  Biso   1.000  Cl
  N328     1.0000 0.60654  0.98833  0.99803  Biso   1.000  N
  N329     1.0000 0.53712  0.09649  0.96616  Biso   1.000  N
  N330     1.0000 0.65205  0.93347  0.00507  Biso   1.000  N
  C219     1.0000 0.64021  0.96877  0.97940  Biso   1.000  C
  H251     1.0000 0.65430  0.97760  0.95220  Biso   1.000  H
  C220     1.0000 0.54077  0.12410  0.93268  Biso   1.000  C
  H252     1.0000 0.56440  0.12450  0.91130  Biso   1.000  H
  Cu111    1.0000 0.67448  0.54574  0.76513  Biso   1.000  Cu
  Cl111    1.0000 0.62938  0.55580  0.82575  Biso   1.000  Cl
  N331     1.0000 0.64346  0.48833  0.75197  Biso   1.000  N
  N332     1.0000 0.71288  0.59649  0.78384  Biso   1.000  N
  N333     1.0000 0.59795  0.43347  0.74493  Biso   1.000  N
  C221     1.0000 0.60979  0.46877  0.77060  Biso   1.000  C
  H253     1.0000 0.59570  0.47760  0.79780  Biso   1.000  H
  C222     1.0000 0.70923  0.62410  0.81732  Biso   1.000  C
  H254     1.0000 0.68560  0.62450  0.83870  Biso   1.000  H
  Cu112    1.0000 0.07552  0.70426  0.26513  Biso   1.000  Cu
  Cl112    1.0000 0.12062  0.69420  0.32575  Biso   1.000  Cl
  N334     1.0000 0.10654  0.76167  0.25197  Biso   1.000  N
  N335     1.0000 0.03712  0.65351  0.28384  Biso   1.000  N
  N336     1.0000 0.15205  0.81653  0.24493  Biso   1.000  N
  C223     1.0000 0.14021  0.78123  0.27060  Biso   1.000  C
  H255     1.0000 0.15430  0.77240  0.29780  Biso   1.000  H
  C224     1.0000 0.04077  0.62590  0.31732  Biso   1.000  C
  H256     1.0000 0.06440  0.62550  0.33870  Biso   1.000  H
  Cu113    1.0000 0.20426  0.26513  0.57552  Biso   1.000  Cu
  Cl113    1.0000 0.19420  0.32575  0.62062  Biso   1.000  Cl
  N337     1.0000 0.26167  0.25197  0.60654  Biso   1.000  N
  N338     1.0000 0.15351  0.28384  0.53712  Biso   1.000  N
  N339     1.0000 0.31653  0.24493  0.65205  Biso   1.000  N
  C225     1.0000 0.28123  0.27060  0.64021  Biso   1.000  C
  H257     1.0000 0.27240  0.29780  0.65430  Biso   1.000  H
  C226     1.0000 0.12590  0.31732  0.54077  Biso   1.000  C
  H258     1.0000 0.12550  0.33870  0.56440  Biso   1.000  H
  Cu114    1.0000 0.04574  0.76513  0.17448  Biso   1.000  Cu
  Cl114    1.0000 0.05580  0.82575  0.12938  Biso   1.000  Cl
  N340     1.0000 0.98833  0.75197  0.14346  Biso   1.000  N
  N341     1.0000 0.09649  0.78384  0.21288  Biso   1.000  N
  N342     1.0000 0.93347  0.74493  0.09795  Biso   1.000  N
  C227     1.0000 0.96877  0.77060  0.10979  Biso   1.000  C
  H259     1.0000 0.97760  0.79780  0.09570  Biso   1.000  H
  C228     1.0000 0.12410  0.81732  0.20923  Biso   1.000  C
  H260     1.0000 0.12450  0.83870  0.18560  Biso   1.000  H
  Cu115    1.0000 0.54574  0.98487  0.07552  Biso   1.000  Cu
  Cl115    1.0000 0.55580  0.92425  0.12062  Biso   1.000  Cl
  N343     1.0000 0.48833  0.99803  0.10654  Biso   1.000  N
  N344     1.0000 0.59649  0.96616  0.03712  Biso   1.000  N
  N345     1.0000 0.43347  0.00507  0.15205  Biso   1.000  N
  C229     1.0000 0.46877  0.97940  0.14021  Biso   1.000  C
  H261     1.0000 0.47760  0.95220  0.15430  Biso   1.000  H
  C230     1.0000 0.62410  0.93268  0.04077  Biso   1.000  C
  H262     1.0000 0.62450  0.91130  0.06440  Biso   1.000  H
  Cu116    1.0000 0.70426  0.48487  0.67448  Biso   1.000  Cu
  Cl116    1.0000 0.69420  0.42425  0.62938  Biso   1.000  Cl
  N346     1.0000 0.76167  0.49803  0.64346  Biso   1.000  N
  N347     1.0000 0.65351  0.46616  0.71288  Biso   1.000  N
  N348     1.0000 0.81653  0.50507  0.59795  Biso   1.000  N
  C231     1.0000 0.78123  0.47940  0.60979  Biso   1.000  C
  H263     1.0000 0.77240  0.45220  0.59570  Biso   1.000  H
  C232     1.0000 0.62590  0.43268  0.70923  Biso   1.000  C
  H264     1.0000 0.62550  0.41130  0.68560  Biso   1.000  H
  Cu117    1.0000 0.26513  0.17448  0.54574  Biso   1.000  Cu
  Cl117    1.0000 0.32575  0.12938  0.55580  Biso   1.000  Cl
  N349     1.0000 0.25197  0.14346  0.48833  Biso   1.000  N
  N350     1.0000 0.28384  0.21288  0.59649  Biso   1.000  N
  N351     1.0000 0.24493  0.09795  0.43347  Biso   1.000  N
  C233     1.0000 0.27060  0.10979  0.46877  Biso   1.000  C
  H265     1.0000 0.29780  0.09570  0.47760  Biso   1.000  H
  C234     1.0000 0.31732  0.20923  0.62410  Biso   1.000  C
  H266     1.0000 0.33870  0.18560  0.62450  Biso   1.000  H
  Cu118    1.0000 0.76513  0.57552  0.70426  Biso   1.000  Cu
  Cl118    1.0000 0.82575  0.62062  0.69420  Biso   1.000  Cl
  N352     1.0000 0.75197  0.60654  0.76167  Biso   1.000  N
  N353     1.0000 0.78384  0.53712  0.65351  Biso   1.000  N
  N354     1.0000 0.74493  0.65205  0.81653  Biso   1.000  N
  C235     1.0000 0.77060  0.64021  0.78123  Biso   1.000  C
  H267     1.0000 0.79780  0.65430  0.77240  Biso   1.000  H
  C236     1.0000 0.81732  0.54077  0.62590  Biso   1.000  C
  H268     1.0000 0.83870  0.56440  0.62550  Biso   1.000  H
  Cu119    1.0000 0.98487  0.67448  0.20426  Biso   1.000  Cu
  Cl119    1.0000 0.92425  0.62938  0.19420  Biso   1.000  Cl
  N355     1.0000 0.99803  0.64346  0.26167  Biso   1.000  N
  N356     1.0000 0.96616  0.71288  0.15351  Biso   1.000  N
  N357     1.0000 0.00507  0.59795  0.31653  Biso   1.000  N
  C237     1.0000 0.97940  0.60979  0.28123  Biso   1.000  C
  H269     1.0000 0.95220  0.59570  0.27240  Biso   1.000  H
  C238     1.0000 0.93268  0.70923  0.12590  Biso   1.000  C
  H270     1.0000 0.91130  0.68560  0.12550  Biso   1.000  H
  Cu120    1.0000 0.48487  0.07552  0.04574  Biso   1.000  Cu
  Cl120    1.0000 0.42425  0.12062  0.05580  Biso   1.000  Cl
  N358     1.0000 0.49803  0.10654  0.98833  Biso   1.000  N
  N359     1.0000 0.46616  0.03712  0.09649  Biso   1.000  N
  N360     1.0000 0.50507  0.15205  0.93347  Biso   1.000  N
  C239     1.0000 0.47940  0.14021  0.96877  Biso   1.000  C
  H271     1.0000 0.45220  0.15430  0.97760  Biso   1.000  H
  C240     1.0000 0.43268  0.04077  0.12410  Biso   1.000  C
  H272     1.0000 0.41130  0.06440  0.12450  Biso   1.000  H
  O33      1.0000 0.97396  0.47396  0.47396  Biso   1.000  O
  H273     1.0000 0.99030  0.49030  0.49030  Biso   1.000  H
  O34      1.0000 0.77604  0.77604  0.97396  Biso   1.000  O
  H274     1.0000 0.75970  0.75970  0.99030  Biso   1.000  H
  O35      1.0000 0.27604  0.97396  0.27604  Biso   1.000  O
  H275     1.0000 0.25970  0.99030  0.25970  Biso   1.000  H
  O36      1.0000 0.47396  0.27604  0.77604  Biso   1.000  O
  H276     1.0000 0.49030  0.25970  0.75970  Biso   1.000  H
  O37      1.0000 0.72396  0.52604  0.72396  Biso   1.000  O
  H277     1.0000 0.74030  0.50970  0.74030  Biso   1.000  H
  O38      1.0000 0.22396  0.22396  0.52604  Biso   1.000  O
  H278     1.0000 0.24030  0.24030  0.50970  Biso   1.000  H
  O39      1.0000 0.02604  0.72396  0.22396  Biso   1.000  O
  H279     1.0000 0.00970  0.74030  0.24030  Biso   1.000  H
  O40      1.0000 0.52604  0.02604  0.02604  Biso   1.000  O
  H280     1.0000 0.50970  0.00970  0.00970  Biso   1.000  H
  Cu121    1.0000 0.95426  0.92448  0.01513  Biso   1.000  Cu
  Cl121    1.0000 0.94420  0.87938  0.07575  Biso   1.000  Cl
  N361     1.0000 0.01167  0.89346  0.00197  Biso   1.000  N
  N362     1.0000 0.90351  0.96288  0.03384  Biso   1.000  N
  N363     1.0000 0.06653  0.84795  0.99493  Biso   1.000  N
  C241     1.0000 0.03123  0.85979  0.02060  Biso   1.000  C
  H281     1.0000 0.02240  0.84570  0.04780  Biso   1.000  H
  C242     1.0000 0.87590  0.95923  0.06732  Biso   1.000  C
  H282     1.0000 0.87550  0.93560  0.08870  Biso   1.000  H
  Cu122    1.0000 0.79574  0.32552  0.51513  Biso   1.000  Cu
  Cl122    1.0000 0.80580  0.37062  0.57575  Biso   1.000  Cl
  N364     1.0000 0.73833  0.35654  0.50197  Biso   1.000  N
  N365     1.0000 0.84649  0.28712  0.53384  Biso   1.000  N
  N366     1.0000 0.68347  0.40205  0.49493  Biso   1.000  N
  C243     1.0000 0.71877  0.39021  0.52060  Biso   1.000  C
  H283     1.0000 0.72760  0.40430  0.54780  Biso   1.000  H
  C244     1.0000 0.87410  0.29077  0.56732  Biso   1.000  C
  H284     1.0000 0.87450  0.31440  0.58870  Biso   1.000  H
  Cu123    1.0000 0.29574  0.42448  0.73487  Biso   1.000  Cu
  Cl123    1.0000 0.30580  0.37938  0.67425  Biso   1.000  Cl
  N367     1.0000 0.23833  0.39346  0.74803  Biso   1.000  N
  N368     1.0000 0.34649  0.46288  0.71616  Biso   1.000  N
  N369     1.0000 0.18347  0.34795  0.75507  Biso   1.000  N
  C245     1.0000 0.21877  0.35979  0.72940  Biso   1.000  C
  H285     1.0000 0.22760  0.34570  0.70220  Biso   1.000  H
  C246     1.0000 0.37410  0.45923  0.68268  Biso   1.000  C
  H286     1.0000 0.37450  0.43560  0.66130  Biso   1.000  H
  Cu124    1.0000 0.45426  0.82552  0.23487  Biso   1.000  Cu
  Cl124    1.0000 0.44420  0.87062  0.17425  Biso   1.000  Cl
  N370     1.0000 0.51167  0.85654  0.24803  Biso   1.000  N
  N371     1.0000 0.40351  0.78712  0.21616  Biso   1.000  N
  N372     1.0000 0.56653  0.90205  0.25507  Biso   1.000  N
  C247     1.0000 0.53123  0.89021  0.22940  Biso   1.000  C
  H287     1.0000 0.52240  0.90430  0.20220  Biso   1.000  H
  C248     1.0000 0.37590  0.79077  0.18268  Biso   1.000  C
  H288     1.0000 0.37550  0.81440  0.16130  Biso   1.000  H
  Cu125    1.0000 0.01513  0.95426  0.92448  Biso   1.000  Cu
  Cl125    1.0000 0.07575  0.94420  0.87938  Biso   1.000  Cl
  N373     1.0000 0.00197  0.01167  0.89346  Biso   1.000  N
  N374     1.0000 0.03384  0.90351  0.96288  Biso   1.000  N
  N375     1.0000 0.99493  0.06653  0.84795  Biso   1.000  N
  C249     1.0000 0.02060  0.03123  0.85979  Biso   1.000  C
  H289     1.0000 0.04780  0.02240  0.84570  Biso   1.000  H
  C250     1.0000 0.06732  0.87590  0.95923  Biso   1.000  C
  H290     1.0000 0.08870  0.87550  0.93560  Biso   1.000  H
  Cu126    1.0000 0.51513  0.79574  0.32552  Biso   1.000  Cu
  Cl126    1.0000 0.57575  0.80580  0.37062  Biso   1.000  Cl
  N376     1.0000 0.50197  0.73833  0.35654  Biso   1.000  N
  N377     1.0000 0.53384  0.84649  0.28712  Biso   1.000  N
  N378     1.0000 0.49493  0.68347  0.40205  Biso   1.000  N
  C251     1.0000 0.52060  0.71877  0.39021  Biso   1.000  C
  H291     1.0000 0.54780  0.72760  0.40430  Biso   1.000  H
  C252     1.0000 0.56732  0.87410  0.29077  Biso   1.000  C
  H292     1.0000 0.58870  0.87450  0.31440  Biso   1.000  H
  Cu127    1.0000 0.73487  0.29574  0.42448  Biso   1.000  Cu
  Cl127    1.0000 0.67425  0.30580  0.37938  Biso   1.000  Cl
  N379     1.0000 0.74803  0.23833  0.39346  Biso   1.000  N
  N380     1.0000 0.71616  0.34649  0.46288  Biso   1.000  N
  N381     1.0000 0.75507  0.18347  0.34795  Biso   1.000  N
  C253     1.0000 0.72940  0.21877  0.35979  Biso   1.000  C
  H293     1.0000 0.70220  0.22760  0.34570  Biso   1.000  H
  C254     1.0000 0.68268  0.37410  0.45923  Biso   1.000  C
  H294     1.0000 0.66130  0.37450  0.43560  Biso   1.000  H
  Cu128    1.0000 0.23487  0.45426  0.82552  Biso   1.000  Cu
  Cl128    1.0000 0.17425  0.44420  0.87062  Biso   1.000  Cl
  N382     1.0000 0.24803  0.51167  0.85654  Biso   1.000  N
  N383     1.0000 0.21616  0.40351  0.78712  Biso   1.000  N
  N384     1.0000 0.25507  0.56653  0.90205  Biso   1.000  N
  C255     1.0000 0.22940  0.53123  0.89021  Biso   1.000  C
  H295     1.0000 0.20220  0.52240  0.90430  Biso   1.000  H
  C256     1.0000 0.18268  0.37590  0.79077  Biso   1.000  C
  H296     1.0000 0.16130  0.37550  0.81440  Biso   1.000  H
  Cu129    1.0000 0.92448  0.01513  0.95426  Biso   1.000  Cu
  Cl129    1.0000 0.87938  0.07575  0.94420  Biso   1.000  Cl
  N385     1.0000 0.89346  0.00197  0.01167  Biso   1.000  N
  N386     1.0000 0.96288  0.03384  0.90351  Biso   1.000  N
  N387     1.0000 0.84795  0.99493  0.06653  Biso   1.000  N
  C257     1.0000 0.85979  0.02060  0.03123  Biso   1.000  C
  H297     1.0000 0.84570  0.04780  0.02240  Biso   1.000  H
  C258     1.0000 0.95923  0.06732  0.87590  Biso   1.000  C
  H298     1.0000 0.93560  0.08870  0.87550  Biso   1.000  H
  Cu130    1.0000 0.32552  0.51513  0.79574  Biso   1.000  Cu
  Cl130    1.0000 0.37062  0.57575  0.80580  Biso   1.000  Cl
  N388     1.0000 0.35654  0.50197  0.73833  Biso   1.000  N
  N389     1.0000 0.28712  0.53384  0.84649  Biso   1.000  N
  N390     1.0000 0.40205  0.49493  0.68347  Biso   1.000  N
  C259     1.0000 0.39021  0.52060  0.71877  Biso   1.000  C
  H299     1.0000 0.40430  0.54780  0.72760  Biso   1.000  H
  C260     1.0000 0.29077  0.56732  0.87410  Biso   1.000  C
  H300     1.0000 0.31440  0.58870  0.87450  Biso   1.000  H
  Cu131    1.0000 0.42448  0.73487  0.29574  Biso   1.000  Cu
  Cl131    1.0000 0.37938  0.67425  0.30580  Biso   1.000  Cl
  N391     1.0000 0.39346  0.74803  0.23833  Biso   1.000  N
  N392     1.0000 0.46288  0.71616  0.34649  Biso   1.000  N
  N393     1.0000 0.34795  0.75507  0.18347  Biso   1.000  N
  C261     1.0000 0.35979  0.72940  0.21877  Biso   1.000  C
  H301     1.0000 0.34570  0.70220  0.22760  Biso   1.000  H
  C262     1.0000 0.45923  0.68268  0.37410  Biso   1.000  C
  H302     1.0000 0.43560  0.66130  0.37450  Biso   1.000  H
  Cu132    1.0000 0.82552  0.23487  0.45426  Biso   1.000  Cu
  Cl132    1.0000 0.87062  0.17425  0.44420  Biso   1.000  Cl
  N394     1.0000 0.85654  0.24803  0.51167  Biso   1.000  N
  N395     1.0000 0.78712  0.21616  0.40351  Biso   1.000  N
  N396     1.0000 0.90205  0.25507  0.56653  Biso   1.000  N
  C263     1.0000 0.89021  0.22940  0.53123  Biso   1.000  C
  H303     1.0000 0.90430  0.20220  0.52240  Biso   1.000  H
  C264     1.0000 0.79077  0.18268  0.37590  Biso   1.000  C
  H304     1.0000 0.81440  0.16130  0.37550  Biso   1.000  H
  Cu133    1.0000 0.17448  0.70426  0.98487  Biso   1.000  Cu
  Cl133    1.0000 0.12938  0.69420  0.92425  Biso   1.000  Cl
  N397     1.0000 0.14346  0.76167  0.99803  Biso   1.000  N
  N398     1.0000 0.21288  0.65351  0.96616  Biso   1.000  N
  N399     1.0000 0.09795  0.81653  0.00507  Biso   1.000  N
  C265     1.0000 0.10979  0.78123  0.97940  Biso   1.000  C
  H305     1.0000 0.09570  0.77240  0.95220  Biso   1.000  H
  C266     1.0000 0.20923  0.62590  0.93268  Biso   1.000  C
  H306     1.0000 0.18560  0.62550  0.91130  Biso   1.000  H
  Cu134    1.0000 0.57552  0.54574  0.48487  Biso   1.000  Cu
  Cl134    1.0000 0.62062  0.55580  0.42425  Biso   1.000  Cl
  N400     1.0000 0.60654  0.48833  0.49803  Biso   1.000  N
  N401     1.0000 0.53712  0.59649  0.46616  Biso   1.000  N
  N402     1.0000 0.65205  0.43347  0.50507  Biso   1.000  N
  C267     1.0000 0.64021  0.46877  0.47940  Biso   1.000  C
  H307     1.0000 0.65430  0.47760  0.45220  Biso   1.000  H
  C268     1.0000 0.54077  0.62410  0.43268  Biso   1.000  C
  H308     1.0000 0.56440  0.62450  0.41130  Biso   1.000  H
  Cu135    1.0000 0.67448  0.04574  0.26513  Biso   1.000  Cu
  Cl135    1.0000 0.62938  0.05580  0.32575  Biso   1.000  Cl
  N403     1.0000 0.64346  0.98833  0.25197  Biso   1.000  N
  N404     1.0000 0.71288  0.09649  0.28384  Biso   1.000  N
  N405     1.0000 0.59795  0.93347  0.24493  Biso   1.000  N
  C269     1.0000 0.60979  0.96877  0.27060  Biso   1.000  C
  H309     1.0000 0.59570  0.97760  0.29780  Biso   1.000  H
  C270     1.0000 0.70923  0.12410  0.31732  Biso   1.000  C
  H310     1.0000 0.68560  0.12450  0.33870  Biso   1.000  H
  Cu136    1.0000 0.07552  0.20426  0.76513  Biso   1.000  Cu
  Cl136    1.0000 0.12062  0.19420  0.82575  Biso   1.000  Cl
  N406     1.0000 0.10654  0.26167  0.75197  Biso   1.000  N
  N407     1.0000 0.03712  0.15351  0.78384  Biso   1.000  N
  N408     1.0000 0.15205  0.31653  0.74493  Biso   1.000  N
  C271     1.0000 0.14021  0.28123  0.77060  Biso   1.000  C
  H311     1.0000 0.15430  0.27240  0.79780  Biso   1.000  H
  C272     1.0000 0.04077  0.12590  0.81732  Biso   1.000  C
  H312     1.0000 0.06440  0.12550  0.83870  Biso   1.000  H
  Cu137    1.0000 0.20426  0.76513  0.07552  Biso   1.000  Cu
  Cl137    1.0000 0.19420  0.82575  0.12062  Biso   1.000  Cl
  N409     1.0000 0.26167  0.75197  0.10654  Biso   1.000  N
  N410     1.0000 0.15351  0.78384  0.03712  Biso   1.000  N
  N411     1.0000 0.31653  0.74493  0.15205  Biso   1.000  N
  C273     1.0000 0.28123  0.77060  0.14021  Biso   1.000  C
  H313     1.0000 0.27240  0.79780  0.15430  Biso   1.000  H
  C274     1.0000 0.12590  0.81732  0.04077  Biso   1.000  C
  H314     1.0000 0.12550  0.83870  0.06440  Biso   1.000  H
  Cu138    1.0000 0.04574  0.26513  0.67448  Biso   1.000  Cu
  Cl138    1.0000 0.05580  0.32575  0.62938  Biso   1.000  Cl
  N412     1.0000 0.98833  0.25197  0.64346  Biso   1.000  N
  N413     1.0000 0.09649  0.28384  0.71288  Biso   1.000  N
  N414     1.0000 0.93347  0.24493  0.59795  Biso   1.000  N
  C275     1.0000 0.96877  0.27060  0.60979  Biso   1.000  C
  H315     1.0000 0.97760  0.29780  0.59570  Biso   1.000  H
  C276     1.0000 0.12410  0.31732  0.70923  Biso   1.000  C
  H316     1.0000 0.12450  0.33870  0.68560  Biso   1.000  H
  Cu139    1.0000 0.54574  0.48487  0.57552  Biso   1.000  Cu
  Cl139    1.0000 0.55580  0.42425  0.62062  Biso   1.000  Cl
  N415     1.0000 0.48833  0.49803  0.60654  Biso   1.000  N
  N416     1.0000 0.59649  0.46616  0.53712  Biso   1.000  N
  N417     1.0000 0.43347  0.50507  0.65205  Biso   1.000  N
  C277     1.0000 0.46877  0.47940  0.64021  Biso   1.000  C
  H317     1.0000 0.47760  0.45220  0.65430  Biso   1.000  H
  C278     1.0000 0.62410  0.43268  0.54077  Biso   1.000  C
  H318     1.0000 0.62450  0.41130  0.56440  Biso   1.000  H
  Cu140    1.0000 0.70426  0.98487  0.17448  Biso   1.000  Cu
  Cl140    1.0000 0.69420  0.92425  0.12938  Biso   1.000  Cl
  N418     1.0000 0.76167  0.99803  0.14346  Biso   1.000  N
  N419     1.0000 0.65351  0.96616  0.21288  Biso   1.000  N
  N420     1.0000 0.81653  0.00507  0.09795  Biso   1.000  N
  C279     1.0000 0.78123  0.97940  0.10979  Biso   1.000  C
  H319     1.0000 0.77240  0.95220  0.09570  Biso   1.000  H
  C280     1.0000 0.62590  0.93268  0.20923  Biso   1.000  C
  H320     1.0000 0.62550  0.91130  0.18560  Biso   1.000  H
  Cu141    1.0000 0.26513  0.67448  0.04574  Biso   1.000  Cu
  Cl141    1.0000 0.32575  0.62938  0.05580  Biso   1.000  Cl
  N421     1.0000 0.25197  0.64346  0.98833  Biso   1.000  N
  N422     1.0000 0.28384  0.71288  0.09649  Biso   1.000  N
  N423     1.0000 0.24493  0.59795  0.93347  Biso   1.000  N
  C281     1.0000 0.27060  0.60979  0.96877  Biso   1.000  C
  H321     1.0000 0.29780  0.59570  0.97760  Biso   1.000  H
  C282     1.0000 0.31732  0.70923  0.12410  Biso   1.000  C
  H322     1.0000 0.33870  0.68560  0.12450  Biso   1.000  H
  Cu142    1.0000 0.76513  0.07552  0.20426  Biso   1.000  Cu
  Cl142    1.0000 0.82575  0.12062  0.19420  Biso   1.000  Cl
  N424     1.0000 0.75197  0.10654  0.26167  Biso   1.000  N
  N425     1.0000 0.78384  0.03712  0.15351  Biso   1.000  N
  N426     1.0000 0.74493  0.15205  0.31653  Biso   1.000  N
  C283     1.0000 0.77060  0.14021  0.28123  Biso   1.000  C
  H323     1.0000 0.79780  0.15430  0.27240  Biso   1.000  H
  C284     1.0000 0.81732  0.04077  0.12590  Biso   1.000  C
  H324     1.0000 0.83870  0.06440  0.12550  Biso   1.000  H
  Cu143    1.0000 0.98487  0.17448  0.70426  Biso   1.000  Cu
  Cl143    1.0000 0.92425  0.12938  0.69420  Biso   1.000  Cl
  N427     1.0000 0.99803  0.14346  0.76167  Biso   1.000  N
  N428     1.0000 0.96616  0.21288  0.65351  Biso   1.000  N
  N429     1.0000 0.00507  0.09795  0.81653  Biso   1.000  N
  C285     1.0000 0.97940  0.10979  0.78123  Biso   1.000  C
  H325     1.0000 0.95220  0.09570  0.77240  Biso   1.000  H
  C286     1.0000 0.93268  0.20923  0.62590  Biso   1.000  C
  H326     1.0000 0.91130  0.18560  0.62550  Biso   1.000  H
  Cu144    1.0000 0.48487  0.57552  0.54574  Biso   1.000  Cu
  Cl144    1.0000 0.42425  0.62062  0.55580  Biso   1.000  Cl
  N430     1.0000 0.49803  0.60654  0.48833  Biso   1.000  N
  N431     1.0000 0.46616  0.53712  0.59649  Biso   1.000  N
  N432     1.0000 0.50507  0.65205  0.43347  Biso   1.000  N
  C287     1.0000 0.47940  0.64021  0.46877  Biso   1.000  C
  H327     1.0000 0.45220  0.65430  0.47760  Biso   1.000  H
  C288     1.0000 0.43268  0.54077  0.62410  Biso   1.000  C
  H328     1.0000 0.41130  0.56440  0.62450  Biso   1.000  H
  O41      1.0000 0.97396  0.97396  0.97396  Biso   1.000  O
  H329     1.0000 0.99030  0.99030  0.99030  Biso   1.000  H
  O42      1.0000 0.77604  0.27604  0.47396  Biso   1.000  O
  H330     1.0000 0.75970  0.25970  0.49030  Biso   1.000  H
  O43      1.0000 0.27604  0.47396  0.77604  Biso   1.000  O
  H331     1.0000 0.25970  0.49030  0.75970  Biso   1.000  H
  O44      1.0000 0.47396  0.77604  0.27604  Biso   1.000  O
  H332     1.0000 0.49030  0.75970  0.25970  Biso   1.000  H
  O45      1.0000 0.22396  0.72396  0.02604  Biso   1.000  O
  H333     1.0000 0.24030  0.74030  0.00970  Biso   1.000  H
  O46      1.0000 0.02604  0.22396  0.72396  Biso   1.000  O
  H334     1.0000 0.00970  0.24030  0.74030  Biso   1.000  H
  O47      1.0000 0.52604  0.52604  0.52604  Biso   1.000  O
  H335     1.0000 0.50970  0.50970  0.50970  Biso   1.000  H
  O48      1.0000 0.72396  0.02604  0.22396  Biso   1.000  O
  H336     1.0000 0.74030  0.00970  0.24030  Biso   1.000  H
  Cu145    1.0000 0.45426  0.42448  0.01513  Biso   1.000  Cu
  Cl145    1.0000 0.44420  0.37938  0.07575  Biso   1.000  Cl
  N433     1.0000 0.51167  0.39346  0.00197  Biso   1.000  N
  N434     1.0000 0.40351  0.46288  0.03384  Biso   1.000  N
  N435     1.0000 0.56653  0.34795  0.99493  Biso   1.000  N
  C289     1.0000 0.53123  0.35979  0.02060  Biso   1.000  C
  H337     1.0000 0.52240  0.34570  0.04780  Biso   1.000  H
  C290     1.0000 0.37590  0.45923  0.06732  Biso   1.000  C
  H338     1.0000 0.37550  0.43560  0.08870  Biso   1.000  H
  Cu146    1.0000 0.29574  0.82552  0.51513  Biso   1.000  Cu
  Cl146    1.0000 0.30580  0.87062  0.57575  Biso   1.000  Cl
  N436     1.0000 0.23833  0.85654  0.50197  Biso   1.000  N
  N437     1.0000 0.34649  0.78712  0.53384  Biso   1.000  N
  N438     1.0000 0.18347  0.90205  0.49493  Biso   1.000  N
  C291     1.0000 0.21877  0.89021  0.52060  Biso   1.000  C
  H339     1.0000 0.22760  0.90430  0.54780  Biso   1.000  H
  C292     1.0000 0.37410  0.79077  0.56732  Biso   1.000  C
  H340     1.0000 0.37450  0.81440  0.58870  Biso   1.000  H
  Cu147    1.0000 0.79574  0.92448  0.73487  Biso   1.000  Cu
  Cl147    1.0000 0.80580  0.87938  0.67425  Biso   1.000  Cl
  N439     1.0000 0.73833  0.89346  0.74803  Biso   1.000  N
  N440     1.0000 0.84649  0.96288  0.71616  Biso   1.000  N
  N441     1.0000 0.68347  0.84795  0.75507  Biso   1.000  N
  C293     1.0000 0.71877  0.85979  0.72940  Biso   1.000  C
  H341     1.0000 0.72760  0.84570  0.70220  Biso   1.000  H
  C294     1.0000 0.87410  0.95923  0.68268  Biso   1.000  C
  H342     1.0000 0.87450  0.93560  0.66130  Biso   1.000  H
  Cu148    1.0000 0.95426  0.32552  0.23487  Biso   1.000  Cu
  Cl148    1.0000 0.94420  0.37062  0.17425  Biso   1.000  Cl
  N442     1.0000 0.01167  0.35654  0.24803  Biso   1.000  N
  N443     1.0000 0.90351  0.28712  0.21616  Biso   1.000  N
  N444     1.0000 0.06653  0.40205  0.25507  Biso   1.000  N
  C295     1.0000 0.03123  0.39021  0.22940  Biso   1.000  C
  H343     1.0000 0.02240  0.40430  0.20220  Biso   1.000  H
  C296     1.0000 0.87590  0.29077  0.18268  Biso   1.000  C
  H344     1.0000 0.87550  0.31440  0.16130  Biso   1.000  H
  Cu149    1.0000 0.51513  0.45426  0.92448  Biso   1.000  Cu
  Cl149    1.0000 0.57575  0.44420  0.87938  Biso   1.000  Cl
  N445     1.0000 0.50197  0.51167  0.89346  Biso   1.000  N
  N446     1.0000 0.53384  0.40351  0.96288  Biso   1.000  N
  N447     1.0000 0.49493  0.56653  0.84795  Biso   1.000  N
  C297     1.0000 0.52060  0.53123  0.85979  Biso   1.000  C
  H345     1.0000 0.54780  0.52240  0.84570  Biso   1.000  H
  C298     1.0000 0.56732  0.37590  0.95923  Biso   1.000  C
  H346     1.0000 0.58870  0.37550  0.93560  Biso   1.000  H
  Cu150    1.0000 0.01513  0.29574  0.32552  Biso   1.000  Cu
  Cl150    1.0000 0.07575  0.30580  0.37062  Biso   1.000  Cl
  N448     1.0000 0.00197  0.23833  0.35654  Biso   1.000  N
  N449     1.0000 0.03384  0.34649  0.28712  Biso   1.000  N
  N450     1.0000 0.99493  0.18347  0.40205  Biso   1.000  N
  C299     1.0000 0.02060  0.21877  0.39021  Biso   1.000  C
  H347     1.0000 0.04780  0.22760  0.40430  Biso   1.000  H
  C300     1.0000 0.06732  0.37410  0.29077  Biso   1.000  C
  H348     1.0000 0.08870  0.37450  0.31440  Biso   1.000  H
  Cu151    1.0000 0.23487  0.79574  0.42448  Biso   1.000  Cu
  Cl151    1.0000 0.17425  0.80580  0.37938  Biso   1.000  Cl
  N451     1.0000 0.24803  0.73833  0.39346  Biso   1.000  N
  N452     1.0000 0.21616  0.84649  0.46288  Biso   1.000  N
  N453     1.0000 0.25507  0.68347  0.34795  Biso   1.000  N
  C301     1.0000 0.22940  0.71877  0.35979  Biso   1.000  C
  H349     1.0000 0.20220  0.72760  0.34570  Biso   1.000  H
  C302     1.0000 0.18268  0.87410  0.45923  Biso   1.000  C
  H350     1.0000 0.16130  0.87450  0.43560  Biso   1.000  H
  Cu152    1.0000 0.73487  0.95426  0.82552  Biso   1.000  Cu
  Cl152    1.0000 0.67425  0.94420  0.87062  Biso   1.000  Cl
  N454     1.0000 0.74803  0.01167  0.85654  Biso   1.000  N
  N455     1.0000 0.71616  0.90351  0.78712  Biso   1.000  N
  N456     1.0000 0.75507  0.06653  0.90205  Biso   1.000  N
  C303     1.0000 0.72940  0.03123  0.89021  Biso   1.000  C
  H351     1.0000 0.70220  0.02240  0.90430  Biso   1.000  H
  C304     1.0000 0.68268  0.87590  0.79077  Biso   1.000  C
  H352     1.0000 0.66130  0.87550  0.81440  Biso   1.000  H
  Cu153    1.0000 0.42448  0.51513  0.95426  Biso   1.000  Cu
  Cl153    1.0000 0.37938  0.57575  0.94420  Biso   1.000  Cl
  N457     1.0000 0.39346  0.50197  0.01167  Biso   1.000  N
  N458     1.0000 0.46288  0.53384  0.90351  Biso   1.000  N
  N459     1.0000 0.34795  0.49493  0.06653  Biso   1.000  N
  C305     1.0000 0.35979  0.52060  0.03123  Biso   1.000  C
  H353     1.0000 0.34570  0.54780  0.02240  Biso   1.000  H
  C306     1.0000 0.45923  0.56732  0.87590  Biso   1.000  C
  H354     1.0000 0.43560  0.58870  0.87550  Biso   1.000  H
  Cu154    1.0000 0.82552  0.01513  0.79574  Biso   1.000  Cu
  Cl154    1.0000 0.87062  0.07575  0.80580  Biso   1.000  Cl
  N460     1.0000 0.85654  0.00197  0.73833  Biso   1.000  N
  N461     1.0000 0.78712  0.03384  0.84649  Biso   1.000  N
  N462     1.0000 0.90205  0.99493  0.68347  Biso   1.000  N
  C307     1.0000 0.89021  0.02060  0.71877  Biso   1.000  C
  H355     1.0000 0.90430  0.04780  0.72760  Biso   1.000  H
  C308     1.0000 0.79077  0.06732  0.87410  Biso   1.000  C
  H356     1.0000 0.81440  0.08870  0.87450  Biso   1.000  H
  Cu155    1.0000 0.92448  0.23487  0.29574  Biso   1.000  Cu
  Cl155    1.0000 0.87938  0.17425  0.30580  Biso   1.000  Cl
  N463     1.0000 0.89346  0.24803  0.23833  Biso   1.000  N
  N464     1.0000 0.96288  0.21616  0.34649  Biso   1.000  N
  N465     1.0000 0.84795  0.25507  0.18347  Biso   1.000  N
  C309     1.0000 0.85979  0.22940  0.21877  Biso   1.000  C
  H357     1.0000 0.84570  0.20220  0.22760  Biso   1.000  H
  C310     1.0000 0.95923  0.18268  0.37410  Biso   1.000  C
  H358     1.0000 0.93560  0.16130  0.37450  Biso   1.000  H
  Cu156    1.0000 0.32552  0.73487  0.45426  Biso   1.000  Cu
  Cl156    1.0000 0.37062  0.67425  0.44420  Biso   1.000  Cl
  N466     1.0000 0.35654  0.74803  0.51167  Biso   1.000  N
  N467     1.0000 0.28712  0.71616  0.40351  Biso   1.000  N
  N468     1.0000 0.40205  0.75507  0.56653  Biso   1.000  N
  C311     1.0000 0.39021  0.72940  0.53123  Biso   1.000  C
  H359     1.0000 0.40430  0.70220  0.52240  Biso   1.000  H
  C312     1.0000 0.29077  0.68268  0.37590  Biso   1.000  C
  H360     1.0000 0.31440  0.66130  0.37550  Biso   1.000  H
  Cu157    1.0000 0.67448  0.20426  0.98487  Biso   1.000  Cu
  Cl157    1.0000 0.62938  0.19420  0.92425  Biso   1.000  Cl
  N469     1.0000 0.64346  0.26167  0.99803  Biso   1.000  N
  N470     1.0000 0.71288  0.15351  0.96616  Biso   1.000  N
  N471     1.0000 0.59795  0.31653  0.00507  Biso   1.000  N
  C313     1.0000 0.60979  0.28123  0.97940  Biso   1.000  C
  H361     1.0000 0.59570  0.27240  0.95220  Biso   1.000  H
  C314     1.0000 0.70923  0.12590  0.93268  Biso   1.000  C
  H362     1.0000 0.68560  0.12550  0.91130  Biso   1.000  H
  Cu158    1.0000 0.07552  0.04574  0.48487  Biso   1.000  Cu
  Cl158    1.0000 0.12062  0.05580  0.42425  Biso   1.000  Cl
  N472     1.0000 0.10654  0.98833  0.49803  Biso   1.000  N
  N473     1.0000 0.03712  0.09649  0.46616  Biso   1.000  N
  N474     1.0000 0.15205  0.93347  0.50507  Biso   1.000  N
  C315     1.0000 0.14021  0.96877  0.47940  Biso   1.000  C
  H363     1.0000 0.15430  0.97760  0.45220  Biso   1.000  H
  C316     1.0000 0.04077  0.12410  0.43268  Biso   1.000  C
  H364     1.0000 0.06440  0.12450  0.41130  Biso   1.000  H
  Cu159    1.0000 0.17448  0.54574  0.26513  Biso   1.000  Cu
  Cl159    1.0000 0.12938  0.55580  0.32575  Biso   1.000  Cl
  N475     1.0000 0.14346  0.48833  0.25197  Biso   1.000  N
  N476     1.0000 0.21288  0.59649  0.28384  Biso   1.000  N
  N477     1.0000 0.09795  0.43347  0.24493  Biso   1.000  N
  C317     1.0000 0.10979  0.46877  0.27060  Biso   1.000  C
  H365     1.0000 0.09570  0.47760  0.29780  Biso   1.000  H
  C318     1.0000 0.20923  0.62410  0.31732  Biso   1.000  C
  H366     1.0000 0.18560  0.62450  0.33870  Biso   1.000  H
  Cu160    1.0000 0.57552  0.70426  0.76513  Biso   1.000  Cu
  Cl160    1.0000 0.62062  0.69420  0.82575  Biso   1.000  Cl
  N478     1.0000 0.60654  0.76167  0.75197  Biso   1.000  N
  N479     1.0000 0.53712  0.65351  0.78384  Biso   1.000  N
  N480     1.0000 0.65205  0.81653  0.74493  Biso   1.000  N
  C319     1.0000 0.64021  0.78123  0.77060  Biso   1.000  C
  H367     1.0000 0.65430  0.77240  0.79780  Biso   1.000  H
  C320     1.0000 0.54077  0.62590  0.81732  Biso   1.000  C
  H368     1.0000 0.56440  0.62550  0.83870  Biso   1.000  H
  Cu161    1.0000 0.70426  0.26513  0.07552  Biso   1.000  Cu
  Cl161    1.0000 0.69420  0.32575  0.12062  Biso   1.000  Cl
  N481     1.0000 0.76167  0.25197  0.10654  Biso   1.000  N
  N482     1.0000 0.65351  0.28384  0.03712  Biso   1.000  N
  N483     1.0000 0.81653  0.24493  0.15205  Biso   1.000  N
  C321     1.0000 0.78123  0.27060  0.14021  Biso   1.000  C
  H369     1.0000 0.77240  0.29780  0.15430  Biso   1.000  H
  C322     1.0000 0.62590  0.31732  0.04077  Biso   1.000  C
  H370     1.0000 0.62550  0.33870  0.06440  Biso   1.000  H
  Cu162    1.0000 0.54574  0.76513  0.67448  Biso   1.000  Cu
  Cl162    1.0000 0.55580  0.82575  0.62938  Biso   1.000  Cl
  N484     1.0000 0.48833  0.75197  0.64346  Biso   1.000  N
  N485     1.0000 0.59649  0.78384  0.71288  Biso   1.000  N
  N486     1.0000 0.43347  0.74493  0.59795  Biso   1.000  N
  C323     1.0000 0.46877  0.77060  0.60979  Biso   1.000  C
  H371     1.0000 0.47760  0.79780  0.59570  Biso   1.000  H
  C324     1.0000 0.62410  0.81732  0.70923  Biso   1.000  C
  H372     1.0000 0.62450  0.83870  0.68560  Biso   1.000  H
  Cu163    1.0000 0.04574  0.98487  0.57552  Biso   1.000  Cu
  Cl163    1.0000 0.05580  0.92425  0.62062  Biso   1.000  Cl
  N487     1.0000 0.98833  0.99803  0.60654  Biso   1.000  N
  N488     1.0000 0.09649  0.96616  0.53712  Biso   1.000  N
  N489     1.0000 0.93347  0.00507  0.65205  Biso   1.000  N
  C325     1.0000 0.96877  0.97940  0.64021  Biso   1.000  C
  H373     1.0000 0.97760  0.95220  0.65430  Biso   1.000  H
  C326     1.0000 0.12410  0.93268  0.54077  Biso   1.000  C
  H374     1.0000 0.12450  0.91130  0.56440  Biso   1.000  H
  Cu164    1.0000 0.20426  0.48487  0.17448  Biso   1.000  Cu
  Cl164    1.0000 0.19420  0.42425  0.12938  Biso   1.000  Cl
  N490     1.0000 0.26167  0.49803  0.14346  Biso   1.000  N
  N491     1.0000 0.15351  0.46616  0.21288  Biso   1.000  N
  N492     1.0000 0.31653  0.50507  0.09795  Biso   1.000  N
  C327     1.0000 0.28123  0.47940  0.10979  Biso   1.000  C
  H375     1.0000 0.27240  0.45220  0.09570  Biso   1.000  H
  C328     1.0000 0.12590  0.43268  0.20923  Biso   1.000  C
  H376     1.0000 0.12550  0.41130  0.18560  Biso   1.000  H
  Cu165    1.0000 0.76513  0.17448  0.04574  Biso   1.000  Cu
  Cl165    1.0000 0.82575  0.12938  0.05580  Biso   1.000  Cl
  N493     1.0000 0.75197  0.14346  0.98833  Biso   1.000  N
  N494     1.0000 0.78384  0.21288  0.09649  Biso   1.000  N
  N495     1.0000 0.74493  0.09795  0.93347  Biso   1.000  N
  C329     1.0000 0.77060  0.10979  0.96877  Biso   1.000  C
  H377     1.0000 0.79780  0.09570  0.97760  Biso   1.000  H
  C330     1.0000 0.81732  0.20923  0.12410  Biso   1.000  C
  H378     1.0000 0.83870  0.18560  0.12450  Biso   1.000  H
  Cu166    1.0000 0.26513  0.57552  0.20426  Biso   1.000  Cu
  Cl166    1.0000 0.32575  0.62062  0.19420  Biso   1.000  Cl
  N496     1.0000 0.25197  0.60654  0.26167  Biso   1.000  N
  N497     1.0000 0.28384  0.53712  0.15351  Biso   1.000  N
  N498     1.0000 0.24493  0.65205  0.31653  Biso   1.000  N
  C331     1.0000 0.27060  0.64021  0.28123  Biso   1.000  C
  H379     1.0000 0.29780  0.65430  0.27240  Biso   1.000  H
  C332     1.0000 0.31732  0.54077  0.12590  Biso   1.000  C
  H380     1.0000 0.33870  0.56440  0.12550  Biso   1.000  H
  Cu167    1.0000 0.48487  0.67448  0.70426  Biso   1.000  Cu
  Cl167    1.0000 0.42425  0.62938  0.69420  Biso   1.000  Cl
  N499     1.0000 0.49803  0.64346  0.76167  Biso   1.000  N
  N500     1.0000 0.46616  0.71288  0.65351  Biso   1.000  N
  N501     1.0000 0.50507  0.59795  0.81653  Biso   1.000  N
  C333     1.0000 0.47940  0.60979  0.78123  Biso   1.000  C
  H381     1.0000 0.45220  0.59570  0.77240  Biso   1.000  H
  C334     1.0000 0.43268  0.70923  0.62590  Biso   1.000  C
  H382     1.0000 0.41130  0.68560  0.62550  Biso   1.000  H
  Cu168    1.0000 0.98487  0.07552  0.54574  Biso   1.000  Cu
  Cl168    1.0000 0.92425  0.12062  0.55580  Biso   1.000  Cl
  N502     1.0000 0.99803  0.10654  0.48833  Biso   1.000  N
  N503     1.0000 0.96616  0.03712  0.59649  Biso   1.000  N
  N504     1.0000 0.00507  0.15205  0.43347  Biso   1.000  N
  C335     1.0000 0.97940  0.14021  0.46877  Biso   1.000  C
  H383     1.0000 0.95220  0.15430  0.47760  Biso   1.000  H
  C336     1.0000 0.93268  0.04077  0.62410  Biso   1.000  C
  H384     1.0000 0.91130  0.06440  0.62450  Biso   1.000  H
  O49      1.0000 0.27604  0.77604  0.47396  Biso   1.000  O
  H385     1.0000 0.25970  0.75970  0.49030  Biso   1.000  H
  O50      1.0000 0.47396  0.47396  0.97396  Biso   1.000  O
  H386     1.0000 0.49030  0.49030  0.99030  Biso   1.000  H
  O51      1.0000 0.77604  0.97396  0.77604  Biso   1.000  O
  H387     1.0000 0.75970  0.99030  0.75970  Biso   1.000  H
  O52      1.0000 0.97396  0.27604  0.27604  Biso   1.000  O
  H388     1.0000 0.99030  0.25970  0.25970  Biso   1.000  H
  O53      1.0000 0.22396  0.52604  0.22396  Biso   1.000  O
  H389     1.0000 0.24030  0.50970  0.24030  Biso   1.000  H
  O54      1.0000 0.52604  0.72396  0.72396  Biso   1.000  O
  H390     1.0000 0.50970  0.74030  0.74030  Biso   1.000  H
  O55      1.0000 0.72396  0.22396  0.02604  Biso   1.000  O
  H391     1.0000 0.74030  0.24030  0.00970  Biso   1.000  H
  O56      1.0000 0.02604  0.02604  0.52604  Biso   1.000  O
  H392     1.0000 0.00970  0.00970  0.50970  Biso   1.000  H
  Cu169    1.0000 0.45426  0.92448  0.51513  Biso   1.000  Cu
  Cl169    1.0000 0.44420  0.87938  0.57575  Biso   1.000  Cl
  N505     1.0000 0.51167  0.89346  0.50197  Biso   1.000  N
  N506     1.0000 0.40351  0.96288  0.53384  Biso   1.000  N
  N507     1.0000 0.56653  0.84795  0.49493  Biso   1.000  N
  C337     1.0000 0.53123  0.85979  0.52060  Biso   1.000  C
  H393     1.0000 0.52240  0.84570  0.54780  Biso   1.000  H
  C338     1.0000 0.37590  0.95923  0.56732  Biso   1.000  C
  H394     1.0000 0.37550  0.93560  0.58870  Biso   1.000  H
  Cu170    1.0000 0.29574  0.32552  0.01513  Biso   1.000  Cu
  Cl170    1.0000 0.30580  0.37062  0.07575  Biso   1.000  Cl
  N508     1.0000 0.23833  0.35654  0.00197  Biso   1.000  N
  N509     1.0000 0.34649  0.28712  0.03384  Biso   1.000  N
  N510     1.0000 0.18347  0.40205  0.99493  Biso   1.000  N
  C339     1.0000 0.21877  0.39021  0.02060  Biso   1.000  C
  H395     1.0000 0.22760  0.40430  0.04780  Biso   1.000  H
  C340     1.0000 0.37410  0.29077  0.06732  Biso   1.000  C
  H396     1.0000 0.37450  0.31440  0.08870  Biso   1.000  H
  Cu171    1.0000 0.79574  0.42448  0.23487  Biso   1.000  Cu
  Cl171    1.0000 0.80580  0.37938  0.17425  Biso   1.000  Cl
  N511     1.0000 0.73833  0.39346  0.24803  Biso   1.000  N
  N512     1.0000 0.84649  0.46288  0.21616  Biso   1.000  N
  N513     1.0000 0.68347  0.34795  0.25507  Biso   1.000  N
  C341     1.0000 0.71877  0.35979  0.22940  Biso   1.000  C
  H397     1.0000 0.72760  0.34570  0.20220  Biso   1.000  H
  C342     1.0000 0.87410  0.45923  0.18268  Biso   1.000  C
  H398     1.0000 0.87450  0.43560  0.16130  Biso   1.000  H
  Cu172    1.0000 0.95426  0.82552  0.73487  Biso   1.000  Cu
  Cl172    1.0000 0.94420  0.87062  0.67425  Biso   1.000  Cl
  N514     1.0000 0.01167  0.85654  0.74803  Biso   1.000  N
  N515     1.0000 0.90351  0.78712  0.71616  Biso   1.000  N
  N516     1.0000 0.06653  0.90205  0.75507  Biso   1.000  N
  C343     1.0000 0.03123  0.89021  0.72940  Biso   1.000  C
  H399     1.0000 0.02240  0.90430  0.70220  Biso   1.000  H
  C344     1.0000 0.87590  0.79077  0.68268  Biso   1.000  C
  H400     1.0000 0.87550  0.81440  0.66130  Biso   1.000  H
  Cu173    1.0000 0.51513  0.95426  0.42448  Biso   1.000  Cu
  Cl173    1.0000 0.57575  0.94420  0.37938  Biso   1.000  Cl
  N517     1.0000 0.50197  0.01167  0.39346  Biso   1.000  N
  N518     1.0000 0.53384  0.90351  0.46288  Biso   1.000  N
  N519     1.0000 0.49493  0.06653  0.34795  Biso   1.000  N
  C345     1.0000 0.52060  0.03123  0.35979  Biso   1.000  C
  H401     1.0000 0.54780  0.02240  0.34570  Biso   1.000  H
  C346     1.0000 0.56732  0.87590  0.45923  Biso   1.000  C
  H402     1.0000 0.58870  0.87550  0.43560  Biso   1.000  H
  Cu174    1.0000 0.01513  0.79574  0.82552  Biso   1.000  Cu
  Cl174    1.0000 0.07575  0.80580  0.87062  Biso   1.000  Cl
  N520     1.0000 0.00197  0.73833  0.85654  Biso   1.000  N
  N521     1.0000 0.03384  0.84649  0.78712  Biso   1.000  N
  N522     1.0000 0.99493  0.68347  0.90205  Biso   1.000  N
  C347     1.0000 0.02060  0.71877  0.89021  Biso   1.000  C
  H403     1.0000 0.04780  0.72760  0.90430  Biso   1.000  H
  C348     1.0000 0.06732  0.87410  0.79077  Biso   1.000  C
  H404     1.0000 0.08870  0.87450  0.81440  Biso   1.000  H
  Cu175    1.0000 0.23487  0.29574  0.92448  Biso   1.000  Cu
  Cl175    1.0000 0.17425  0.30580  0.87938  Biso   1.000  Cl
  N523     1.0000 0.24803  0.23833  0.89346  Biso   1.000  N
  N524     1.0000 0.21616  0.34649  0.96288  Biso   1.000  N
  N525     1.0000 0.25507  0.18347  0.84795  Biso   1.000  N
  C349     1.0000 0.22940  0.21877  0.85979  Biso   1.000  C
  H405     1.0000 0.20220  0.22760  0.84570  Biso   1.000  H
  C350     1.0000 0.18268  0.37410  0.95923  Biso   1.000  C
  H406     1.0000 0.16130  0.37450  0.93560  Biso   1.000  H
  Cu176    1.0000 0.73487  0.45426  0.32552  Biso   1.000  Cu
  Cl176    1.0000 0.67425  0.44420  0.37062  Biso   1.000  Cl
  N526     1.0000 0.74803  0.51167  0.35654  Biso   1.000  N
  N527     1.0000 0.71616  0.40351  0.28712  Biso   1.000  N
  N528     1.0000 0.75507  0.56653  0.40205  Biso   1.000  N
  C351     1.0000 0.72940  0.53123  0.39021  Biso   1.000  C
  H407     1.0000 0.70220  0.52240  0.40430  Biso   1.000  H
  C352     1.0000 0.68268  0.37590  0.29077  Biso   1.000  C
  H408     1.0000 0.66130  0.37550  0.31440  Biso   1.000  H
  Cu177    1.0000 0.42448  0.01513  0.45426  Biso   1.000  Cu
  Cl177    1.0000 0.37938  0.07575  0.44420  Biso   1.000  Cl
  N529     1.0000 0.39346  0.00197  0.51167  Biso   1.000  N
  N530     1.0000 0.46288  0.03384  0.40351  Biso   1.000  N
  N531     1.0000 0.34795  0.99493  0.56653  Biso   1.000  N
  C353     1.0000 0.35979  0.02060  0.53123  Biso   1.000  C
  H409     1.0000 0.34570  0.04780  0.52240  Biso   1.000  H
  C354     1.0000 0.45923  0.06732  0.37590  Biso   1.000  C
  H410     1.0000 0.43560  0.08870  0.37550  Biso   1.000  H
  Cu178    1.0000 0.82552  0.51513  0.29574  Biso   1.000  Cu
  Cl178    1.0000 0.87062  0.57575  0.30580  Biso   1.000  Cl
  N532     1.0000 0.85654  0.50197  0.23833  Biso   1.000  N
  N533     1.0000 0.78712  0.53384  0.34649  Biso   1.000  N
  N534     1.0000 0.90205  0.49493  0.18347  Biso   1.000  N
  C355     1.0000 0.89021  0.52060  0.21877  Biso   1.000  C
  H411     1.0000 0.90430  0.54780  0.22760  Biso   1.000  H
  C356     1.0000 0.79077  0.56732  0.37410  Biso   1.000  C
  H412     1.0000 0.81440  0.58870  0.37450  Biso   1.000  H
  Cu179    1.0000 0.92448  0.73487  0.79574  Biso   1.000  Cu
  Cl179    1.0000 0.87938  0.67425  0.80580  Biso   1.000  Cl
  N535     1.0000 0.89346  0.74803  0.73833  Biso   1.000  N
  N536     1.0000 0.96288  0.71616  0.84649  Biso   1.000  N
  N537     1.0000 0.84795  0.75507  0.68347  Biso   1.000  N
  C357     1.0000 0.85979  0.72940  0.71877  Biso   1.000  C
  H413     1.0000 0.84570  0.70220  0.72760  Biso   1.000  H
  C358     1.0000 0.95923  0.68268  0.87410  Biso   1.000  C
  H414     1.0000 0.93560  0.66130  0.87450  Biso   1.000  H
  Cu180    1.0000 0.32552  0.23487  0.95426  Biso   1.000  Cu
  Cl180    1.0000 0.37062  0.17425  0.94420  Biso   1.000  Cl
  N538     1.0000 0.35654  0.24803  0.01167  Biso   1.000  N
  N539     1.0000 0.28712  0.21616  0.90351  Biso   1.000  N
  N540     1.0000 0.40205  0.25507  0.06653  Biso   1.000  N
  C359     1.0000 0.39021  0.22940  0.03123  Biso   1.000  C
  H415     1.0000 0.40430  0.20220  0.02240  Biso   1.000  H
  C360     1.0000 0.29077  0.18268  0.87590  Biso   1.000  C
  H416     1.0000 0.31440  0.16130  0.87550  Biso   1.000  H
  Cu181    1.0000 0.67448  0.70426  0.48487  Biso   1.000  Cu
  Cl181    1.0000 0.62938  0.69420  0.42425  Biso   1.000  Cl
  N541     1.0000 0.64346  0.76167  0.49803  Biso   1.000  N
  N542     1.0000 0.71288  0.65351  0.46616  Biso   1.000  N
  N543     1.0000 0.59795  0.81653  0.50507  Biso   1.000  N
  C361     1.0000 0.60979  0.78123  0.47940  Biso   1.000  C
  H417     1.0000 0.59570  0.77240  0.45220  Biso   1.000  H
  C362     1.0000 0.70923  0.62590  0.43268  Biso   1.000  C
  H418     1.0000 0.68560  0.62550  0.41130  Biso   1.000  H
  Cu182    1.0000 0.07552  0.54574  0.98487  Biso   1.000  Cu
  Cl182    1.0000 0.12062  0.55580  0.92425  Biso   1.000  Cl
  N544     1.0000 0.10654  0.48833  0.99803  Biso   1.000  N
  N545     1.0000 0.03712  0.59649  0.96616  Biso   1.000  N
  N546     1.0000 0.15205  0.43347  0.00507  Biso   1.000  N
  C363     1.0000 0.14021  0.46877  0.97940  Biso   1.000  C
  H419     1.0000 0.15430  0.47760  0.95220  Biso   1.000  H
  C364     1.0000 0.04077  0.62410  0.93268  Biso   1.000  C
  H420     1.0000 0.06440  0.62450  0.91130  Biso   1.000  H
  Cu183    1.0000 0.17448  0.04574  0.76513  Biso   1.000  Cu
  Cl183    1.0000 0.12938  0.05580  0.82575  Biso   1.000  Cl
  N547     1.0000 0.14346  0.98833  0.75197  Biso   1.000  N
  N548     1.0000 0.21288  0.09649  0.78384  Biso   1.000  N
  N549     1.0000 0.09795  0.93347  0.74493  Biso   1.000  N
  C365     1.0000 0.10979  0.96877  0.77060  Biso   1.000  C
  H421     1.0000 0.09570  0.97760  0.79780  Biso   1.000  H
  C366     1.0000 0.20923  0.12410  0.81732  Biso   1.000  C
  H422     1.0000 0.18560  0.12450  0.83870  Biso   1.000  H
  Cu184    1.0000 0.57552  0.20426  0.26513  Biso   1.000  Cu
  Cl184    1.0000 0.62062  0.19420  0.32575  Biso   1.000  Cl
  N550     1.0000 0.60654  0.26167  0.25197  Biso   1.000  N
  N551     1.0000 0.53712  0.15351  0.28384  Biso   1.000  N
  N552     1.0000 0.65205  0.31653  0.24493  Biso   1.000  N
  C367     1.0000 0.64021  0.28123  0.27060  Biso   1.000  C
  H423     1.0000 0.65430  0.27240  0.29780  Biso   1.000  H
  C368     1.0000 0.54077  0.12590  0.31732  Biso   1.000  C
  H424     1.0000 0.56440  0.12550  0.33870  Biso   1.000  H
  Cu185    1.0000 0.70426  0.76513  0.57552  Biso   1.000  Cu
  Cl185    1.0000 0.69420  0.82575  0.62062  Biso   1.000  Cl
  N553     1.0000 0.76167  0.75197  0.60654  Biso   1.000  N
  N554     1.0000 0.65351  0.78384  0.53712  Biso   1.000  N
  N555     1.0000 0.81653  0.74493  0.65205  Biso   1.000  N
  C369     1.0000 0.78123  0.77060  0.64021  Biso   1.000  C
  H425     1.0000 0.77240  0.79780  0.65430  Biso   1.000  H
  C370     1.0000 0.62590  0.81732  0.54077  Biso   1.000  C
  H426     1.0000 0.62550  0.83870  0.56440  Biso   1.000  H
  Cu186    1.0000 0.54574  0.26513  0.17448  Biso   1.000  Cu
  Cl186    1.0000 0.55580  0.32575  0.12938  Biso   1.000  Cl
  N556     1.0000 0.48833  0.25197  0.14346  Biso   1.000  N
  N557     1.0000 0.59649  0.28384  0.21288  Biso   1.000  N
  N558     1.0000 0.43347  0.24493  0.09795  Biso   1.000  N
  C371     1.0000 0.46877  0.27060  0.10979  Biso   1.000  C
  H427     1.0000 0.47760  0.29780  0.09570  Biso   1.000  H
  C372     1.0000 0.62410  0.31732  0.20923  Biso   1.000  C
  H428     1.0000 0.62450  0.33870  0.18560  Biso   1.000  H
  Cu187    1.0000 0.04574  0.48487  0.07552  Biso   1.000  Cu
  Cl187    1.0000 0.05580  0.42425  0.12062  Biso   1.000  Cl
  N559     1.0000 0.98833  0.49803  0.10654  Biso   1.000  N
  N560     1.0000 0.09649  0.46616  0.03712  Biso   1.000  N
  N561     1.0000 0.93347  0.50507  0.15205  Biso   1.000  N
  C373     1.0000 0.96877  0.47940  0.14021  Biso   1.000  C
  H429     1.0000 0.97760  0.45220  0.15430  Biso   1.000  H
  C374     1.0000 0.12410  0.43268  0.04077  Biso   1.000  C
  H430     1.0000 0.12450  0.41130  0.06440  Biso   1.000  H
  Cu188    1.0000 0.20426  0.98487  0.67448  Biso   1.000  Cu
  Cl188    1.0000 0.19420  0.92425  0.62938  Biso   1.000  Cl
  N562     1.0000 0.26167  0.99803  0.64346  Biso   1.000  N
  N563     1.0000 0.15351  0.96616  0.71288  Biso   1.000  N
  N564     1.0000 0.31653  0.00507  0.59795  Biso   1.000  N
  C375     1.0000 0.28123  0.97940  0.60979  Biso   1.000  C
  H431     1.0000 0.27240  0.95220  0.59570  Biso   1.000  H
  C376     1.0000 0.12590  0.93268  0.70923  Biso   1.000  C
  H432     1.0000 0.12550  0.91130  0.68560  Biso   1.000  H
  Cu189    1.0000 0.76513  0.67448  0.54574  Biso   1.000  Cu
  Cl189    1.0000 0.82575  0.62938  0.55580  Biso   1.000  Cl
  N565     1.0000 0.75197  0.64346  0.48833  Biso   1.000  N
  N566     1.0000 0.78384  0.71288  0.59649  Biso   1.000  N
  N567     1.0000 0.74493  0.59795  0.43347  Biso   1.000  N
  C377     1.0000 0.77060  0.60979  0.46877  Biso   1.000  C
  H433     1.0000 0.79780  0.59570  0.47760  Biso   1.000  H
  C378     1.0000 0.81732  0.70923  0.62410  Biso   1.000  C
  H434     1.0000 0.83870  0.68560  0.62450  Biso   1.000  H
  Cu190    1.0000 0.26513  0.07552  0.70426  Biso   1.000  Cu
  Cl190    1.0000 0.32575  0.12062  0.69420  Biso   1.000  Cl
  N568     1.0000 0.25197  0.10654  0.76167  Biso   1.000  N
  N569     1.0000 0.28384  0.03712  0.65351  Biso   1.000  N
  N570     1.0000 0.24493  0.15205  0.81653  Biso   1.000  N
  C379     1.0000 0.27060  0.14021  0.78123  Biso   1.000  C
  H435     1.0000 0.29780  0.15430  0.77240  Biso   1.000  H
  C380     1.0000 0.31732  0.04077  0.62590  Biso   1.000  C
  H436     1.0000 0.33870  0.06440  0.62550  Biso   1.000  H
  Cu191    1.0000 0.48487  0.17448  0.20426  Biso   1.000  Cu
  Cl191    1.0000 0.42425  0.12938  0.19420  Biso   1.000  Cl
  N571     1.0000 0.49803  0.14346  0.26167  Biso   1.000  N
  N572     1.0000 0.46616  0.21288  0.15351  Biso   1.000  N
  N573     1.0000 0.50507  0.09795  0.31653  Biso   1.000  N
  C381     1.0000 0.47940  0.10979  0.28123  Biso   1.000  C
  H437     1.0000 0.45220  0.09570  0.27240  Biso   1.000  H
  C382     1.0000 0.43268  0.20923  0.12590  Biso   1.000  C
  H438     1.0000 0.41130  0.18560  0.12550  Biso   1.000  H
  Cu192    1.0000 0.98487  0.57552  0.04574  Biso   1.000  Cu
  Cl192    1.0000 0.92425  0.62062  0.05580  Biso   1.000  Cl
  N574     1.0000 0.99803  0.60654  0.98833  Biso   1.000  N
  N575     1.0000 0.96616  0.53712  0.09649  Biso   1.000  N
  N576     1.0000 0.00507  0.65205  0.93347  Biso   1.000  N
  C383     1.0000 0.97940  0.64021  0.96877  Biso   1.000  C
  H439     1.0000 0.95220  0.65430  0.97760  Biso   1.000  H
  C384     1.0000 0.93268  0.54077  0.12410  Biso   1.000  C
  H440     1.0000 0.91130  0.56440  0.12450  Biso   1.000  H
  O57      1.0000 0.77604  0.47396  0.27604  Biso   1.000  O
  H441     1.0000 0.75970  0.49030  0.25970  Biso   1.000  H
  O58      1.0000 0.47396  0.97396  0.47396  Biso   1.000  O
  H442     1.0000 0.49030  0.99030  0.49030  Biso   1.000  H
  O59      1.0000 0.97396  0.77604  0.77604  Biso   1.000  O
  H443     1.0000 0.99030  0.75970  0.75970  Biso   1.000  H
  O60      1.0000 0.27604  0.27604  0.97396  Biso   1.000  O
  H444     1.0000 0.25970  0.25970  0.99030  Biso   1.000  H
  O61      1.0000 0.72396  0.72396  0.52604  Biso   1.000  O
  H445     1.0000 0.74030  0.74030  0.50970  Biso   1.000  H
  O62      1.0000 0.02604  0.52604  0.02604  Biso   1.000  O
  H446     1.0000 0.00970  0.50970  0.00970  Biso   1.000  H
  O63      1.0000 0.22396  0.02604  0.72396  Biso   1.000  O
  H447     1.0000 0.24030  0.00970  0.74030  Biso   1.000  H
  O64      1.0000 0.52604  0.22396  0.22396  Biso   1.000  O
  H448     1.0000 0.50970  0.24030  0.24030  Biso   1.000  H
