data_image0
_cell_length_a       22.53
_cell_length_b       25.597
_cell_length_c       34.009
_cell_angle_alpha    90
_cell_angle_beta     107.439
_cell_angle_gamma    90

_symmetry_space_group_name_H-M    "P 1"
_symmetry_int_tables_number       1

loop_
  _symmetry_equiv_pos_as_xyz
  'x, y, z'

loop_
  _atom_site_label
  _atom_site_occupancy
  _atom_site_fract_x
  _atom_site_fract_y
  _atom_site_fract_z
  _atom_site_thermal_displace_type
  _atom_site_B_iso_or_equiv
  _atom_site_type_symbol
  Zn1      1.0000 0.40536  0.02871  0.19975  Biso   1.000  Zn
  Zn2      1.0000 0.31870  0.96324  0.12655  Biso   1.000  Zn
  Zn3      1.0000 0.25955  0.02623  0.18220  Biso   1.000  Zn
  Zn4      1.0000 0.30672  0.08636  0.11722  Biso   1.000  Zn
  F1       1.0000 0.65950  0.89760  0.26994  Biso   1.000  F
  F2       1.0000 0.70280  0.86570  0.22760  Biso   1.000  F
  F3       1.0000 0.67290  0.81490  0.26660  Biso   1.000  F
  F4       1.0000 0.57340  0.66300  0.24730  Biso   1.000  F
  F5       1.0000 0.50380  0.70570  0.19270  Biso   1.000  F
  F6       1.0000 0.56910  0.74700  0.25490  Biso   1.000  F
  F7       1.0000 0.09840  0.74040  0.07890  Biso   1.000  F
  F8       1.0000 0.16360  0.69460  0.13930  Biso   1.000  F
  F9       1.0000 0.20030  0.74360  0.09780  Biso   1.000  F
  F10      1.0000 0.16100  0.65900  0.25170  Biso   1.000  F
  F11      1.0000 0.14940  0.73750  0.25910  Biso   1.000  F
  F12      1.0000 0.19690  0.69290  0.20610  Biso   1.000  F
  F13      1.0000 0.52630  0.00510  0.39710  Biso   1.000  F
  F14      1.0000 0.49340  0.96930  0.43810  Biso   1.000  F
  F15      1.0000 0.49590  0.06220  0.42200  Biso   1.000  F
  F16      1.0000 0.37210  0.85730  0.46170  Biso   1.000  F
  F17      1.0000 0.30640  0.88960  0.40490  Biso   1.000  F
  F18      1.0000 0.41320  0.89570  0.42030  Biso   1.000  F
  O1       1.0000 0.45770  0.96792  0.19759  Biso   1.000  O
  O2       1.0000 0.39110  0.91885  0.15002  Biso   1.000  O
  O3       1.0000 0.70940  0.58730  0.18250  Biso   1.000  O
  O4       1.0000 0.76640  0.63449  0.15236  Biso   1.000  O
  O5       1.0000 0.25230  0.91700  0.13172  Biso   1.000  O
  O6       1.0000 0.20660  0.96370  0.17004  Biso   1.000  O
  O7       1.0000 0.95660  0.58827  0.19690  Biso   1.000  O
  O8       1.0000 0.89130  0.62350  0.14020  Biso   1.000  O
  O9       1.0000 0.29550  0.01610  0.24179  Biso   1.000  O
  O10      1.0000 0.39780  0.02657  0.25557  Biso   1.000  O
  O11      1.0000 0.31710  0.03670  0.56988  Biso   1.000  O
  O12      1.0000 0.33840  0.95230  0.57287  Biso   1.000  O
  O13      1.0000 0.32586  0.02584  0.15778  Biso   1.000  O
  N1       1.0000 0.28220  0.14680  0.07290  Biso   1.000  N
  C1       1.0000 0.44300  0.92910  0.17520  Biso   1.000  C
  C2       1.0000 0.49310  0.88890  0.17900  Biso   1.000  C
  C3       1.0000 0.54910  0.89130  0.20880  Biso   1.000  C
  H1       1.0000 0.55760  0.91930  0.22710  Biso   1.000  H
  C4       1.0000 0.59380  0.85250  0.21230  Biso   1.000  C
  C5       1.0000 0.58280  0.81030  0.18600  Biso   1.000  C
  C6       1.0000 0.52490  0.80940  0.15440  Biso   1.000  C
  H2       1.0000 0.51650  0.78200  0.13560  Biso   1.000  H
  C7       1.0000 0.48090  0.84790  0.15060  Biso   1.000  C
  H3       1.0000 0.44350  0.84660  0.12940  Biso   1.000  H
  C8       1.0000 0.65480  0.85690  0.24350  Biso   1.000  C
  C9       1.0000 0.62470  0.76610  0.18650  Biso   1.000  C
  C10      1.0000 0.61760  0.71980  0.20570  Biso   1.000  C
  C11      1.0000 0.65350  0.67670  0.19940  Biso   1.000  C
  H4       1.0000 0.64930  0.64520  0.21190  Biso   1.000  H
  C12      1.0000 0.69270  0.67850  0.17700  Biso   1.000  C
  C13      1.0000 0.70190  0.72500  0.15990  Biso   1.000  C
  H5       1.0000 0.73060  0.72790  0.14530  Biso   1.000  H
  C14      1.0000 0.66650  0.76800  0.16500  Biso   1.000  C
  H6       1.0000 0.67200  0.79950  0.15300  Biso   1.000  H
  C15      1.0000 0.72830  0.63100  0.16970  Biso   1.000  C
  C16      1.0000 0.56250  0.70970  0.22120  Biso   1.000  C
  C17      1.0000 0.21700  0.92250  0.15390  Biso   1.000  C
  C18      1.0000 0.17970  0.87650  0.15920  Biso   1.000  C
  C19      1.0000 0.18440  0.83020  0.14030  Biso   1.000  C
  H7       1.0000 0.20980  0.82840  0.12330  Biso   1.000  H
  C20      1.0000 0.15320  0.78670  0.14560  Biso   1.000  C
  C21      1.0000 0.11300  0.78830  0.16840  Biso   1.000  C
  C22      1.0000 0.10930  0.83430  0.18960  Biso   1.000  C
  C23      1.0000 0.14310  0.87710  0.18330  Biso   1.000  C
  H8       1.0000 0.14000  0.90810  0.19690  Biso   1.000  H
  C24      1.0000 0.15150  0.74120  0.11400  Biso   1.000  C
  C25      1.0000 0.07250  0.74270  0.17050  Biso   1.000  C
  C26      1.0000 0.08490  0.70400  0.19930  Biso   1.000  C
  C27      1.0000 0.04440  0.66500  0.19910  Biso   1.000  C
  H9       1.0000 0.05560  0.63860  0.21870  Biso   1.000  H
  C28      1.0000 0.98660  0.66390  0.16990  Biso   1.000  C
  C29      1.0000 0.97240  0.70130  0.14010  Biso   1.000  C
  H10      1.0000 0.93460  0.69980  0.11930  Biso   1.000  H
  C30      1.0000 0.01430  0.74210  0.14030  Biso   1.000  C
  H11      1.0000 0.00350  0.76850  0.12060  Biso   1.000  H
  C31      1.0000 0.94020  0.62200  0.16890  Biso   1.000  C
  C32      1.0000 0.14680  0.70130  0.22680  Biso   1.000  C
  C33      1.0000 0.34930  0.01900  0.26550  Biso   1.000  C
  C34      1.0000 0.35640  0.01390  0.31050  Biso   1.000  C
  C35      1.0000 0.41440  0.01710  0.34010  Biso   1.000  C
  H12      1.0000 0.45020  0.02210  0.33230  Biso   1.000  H
  C36      1.0000 0.41800  0.01280  0.38080  Biso   1.000  C
  C37      1.0000 0.36610  0.00650  0.39410  Biso   1.000  C
  C38      1.0000 0.30870  0.99850  0.36420  Biso   1.000  C
  H13      1.0000 0.27400  0.98980  0.37220  Biso   1.000  H
  C39      1.0000 0.30330  0.00340  0.32180  Biso   1.000  C
  H14      1.0000 0.26490  0.99970  0.30190  Biso   1.000  H
  C40      1.0000 0.47820  0.01130  0.41110  Biso   1.000  C
  C41      1.0000 0.36330  0.00410  0.43760  Biso   1.000  C
  C42      1.0000 0.36470  0.95580  0.45670  Biso   1.000  C
  C43      1.0000 0.35790  0.95440  0.49600  Biso   1.000  C
  H15      1.0000 0.36210  0.92270  0.50980  Biso   1.000  H
  C44      1.0000 0.34510  0.99850  0.51500  Biso   1.000  C
  C45      1.0000 0.34410  0.04540  0.49540  Biso   1.000  C
  H16      1.0000 0.33600  0.07600  0.50760  Biso   1.000  H
  C46      1.0000 0.35540  0.04720  0.45640  Biso   1.000  C
  C47      1.0000 0.33320  0.99490  0.55530  Biso   1.000  C
  C48      1.0000 0.36350  0.90370  0.43740  Biso   1.000  C
  C49      1.0000 0.32540  0.17060  0.06080  Biso   1.000  C
  H17      1.0000 0.36660  0.16050  0.07250  Biso   1.000  H
  C50      1.0000 0.31230  0.21030  0.03110  Biso   1.000  C
  H18      1.0000 0.34450  0.22400  0.02240  Biso   1.000  H
  C51      1.0000 0.25660  0.22860  0.01550  Biso   1.000  C
  C52      1.0000 0.21480  0.20420  0.02870  Biso   1.000  C
  H19      1.0000 0.17330  0.21160  0.01510  Biso   1.000  H
  C53      1.0000 0.22670  0.16880  0.06070  Biso   1.000  C
  H20      1.0000 0.19650  0.16060  0.07330  Biso   1.000  H
  F19      1.0000 0.18880  0.72740  0.23640  Biso   1.000  F
  F20      1.0000 0.48720  0.02150  0.44540  Biso   1.000  F
  F21      1.0000 0.35000  0.14200  0.46460  Biso   1.000  F
  F22      1.0000 0.27480  0.09120  0.40460  Biso   1.000  F
  F23      1.0000 0.38140  0.11420  0.42190  Biso   1.000  F
  C54      1.0000 0.33440  0.09300  0.44000  Biso   1.000  C
  F24      1.0000 0.06790  0.88180  0.23200  Biso   1.000  F
  F25      1.0000 0.07400  0.80560  0.24490  Biso   1.000  F
  F26      1.0000 0.00250  0.85170  0.18840  Biso   1.000  F
  C55      1.0000 0.06360  0.83190  0.21240  Biso   1.000  C
  Zn5      1.0000 0.90536  0.52871  0.19975  Biso   1.000  Zn
  Zn6      1.0000 0.81870  0.46324  0.12655  Biso   1.000  Zn
  Zn7      1.0000 0.75955  0.52623  0.18220  Biso   1.000  Zn
  Zn8      1.0000 0.80672  0.58636  0.11722  Biso   1.000  Zn
  F27      1.0000 0.15950  0.39760  0.26994  Biso   1.000  F
  F28      1.0000 0.20280  0.36570  0.22760  Biso   1.000  F
  F29      1.0000 0.17290  0.31490  0.26660  Biso   1.000  F
  F30      1.0000 0.07340  0.16300  0.24730  Biso   1.000  F
  F31      1.0000 0.00380  0.20570  0.19270  Biso   1.000  F
  F32      1.0000 0.06910  0.24700  0.25490  Biso   1.000  F
  F33      1.0000 0.59840  0.24040  0.07890  Biso   1.000  F
  F34      1.0000 0.66360  0.19460  0.13930  Biso   1.000  F
  F35      1.0000 0.70030  0.24360  0.09780  Biso   1.000  F
  F36      1.0000 0.66100  0.15900  0.25170  Biso   1.000  F
  F37      1.0000 0.64940  0.23750  0.25910  Biso   1.000  F
  F38      1.0000 0.69690  0.19290  0.20610  Biso   1.000  F
  F39      1.0000 0.02630  0.50510  0.39710  Biso   1.000  F
  F40      1.0000 0.99340  0.46930  0.43810  Biso   1.000  F
  F41      1.0000 0.99590  0.56220  0.42200  Biso   1.000  F
  F42      1.0000 0.87210  0.35730  0.46170  Biso   1.000  F
  F43      1.0000 0.80640  0.38960  0.40490  Biso   1.000  F
  F44      1.0000 0.91320  0.39570  0.42030  Biso   1.000  F
  O14      1.0000 0.95770  0.46792  0.19759  Biso   1.000  O
  O15      1.0000 0.89110  0.41885  0.15002  Biso   1.000  O
  O16      1.0000 0.20940  0.08730  0.18250  Biso   1.000  O
  O17      1.0000 0.26640  0.13449  0.15236  Biso   1.000  O
  O18      1.0000 0.75230  0.41700  0.13172  Biso   1.000  O
  O19      1.0000 0.70660  0.46370  0.17004  Biso   1.000  O
  O20      1.0000 0.45660  0.08827  0.19690  Biso   1.000  O
  O21      1.0000 0.39130  0.12350  0.14020  Biso   1.000  O
  O22      1.0000 0.79550  0.51610  0.24179  Biso   1.000  O
  O23      1.0000 0.89780  0.52657  0.25557  Biso   1.000  O
  O24      1.0000 0.81710  0.53670  0.56988  Biso   1.000  O
  O25      1.0000 0.83840  0.45230  0.57287  Biso   1.000  O
  O26      1.0000 0.82586  0.52584  0.15778  Biso   1.000  O
  N2       1.0000 0.78220  0.64680  0.07290  Biso   1.000  N
  C56      1.0000 0.94300  0.42910  0.17520  Biso   1.000  C
  C57      1.0000 0.99310  0.38890  0.17900  Biso   1.000  C
  C58      1.0000 0.04910  0.39130  0.20880  Biso   1.000  C
  H21      1.0000 0.05760  0.41930  0.22710  Biso   1.000  H
  C59      1.0000 0.09380  0.35250  0.21230  Biso   1.000  C
  C60      1.0000 0.08280  0.31030  0.18600  Biso   1.000  C
  C61      1.0000 0.02490  0.30940  0.15440  Biso   1.000  C
  H22      1.0000 0.01650  0.28200  0.13560  Biso   1.000  H
  C62      1.0000 0.98090  0.34790  0.15060  Biso   1.000  C
  H23      1.0000 0.94350  0.34660  0.12940  Biso   1.000  H
  C63      1.0000 0.15480  0.35690  0.24350  Biso   1.000  C
  C64      1.0000 0.12470  0.26610  0.18650  Biso   1.000  C
  C65      1.0000 0.11760  0.21980  0.20570  Biso   1.000  C
  C66      1.0000 0.15350  0.17670  0.19940  Biso   1.000  C
  H24      1.0000 0.14930  0.14520  0.21190  Biso   1.000  H
  C67      1.0000 0.19270  0.17850  0.17700  Biso   1.000  C
  C68      1.0000 0.20190  0.22500  0.15990  Biso   1.000  C
  H25      1.0000 0.23060  0.22790  0.14530  Biso   1.000  H
  C69      1.0000 0.16650  0.26800  0.16500  Biso   1.000  C
  H26      1.0000 0.17200  0.29950  0.15300  Biso   1.000  H
  C70      1.0000 0.22830  0.13100  0.16970  Biso   1.000  C
  C71      1.0000 0.06250  0.20970  0.22120  Biso   1.000  C
  C72      1.0000 0.71700  0.42250  0.15390  Biso   1.000  C
  C73      1.0000 0.67970  0.37650  0.15920  Biso   1.000  C
  C74      1.0000 0.68440  0.33020  0.14030  Biso   1.000  C
  H27      1.0000 0.70980  0.32840  0.12330  Biso   1.000  H
  C75      1.0000 0.65320  0.28670  0.14560  Biso   1.000  C
  C76      1.0000 0.61300  0.28830  0.16840  Biso   1.000  C
  C77      1.0000 0.60930  0.33430  0.18960  Biso   1.000  C
  C78      1.0000 0.64310  0.37710  0.18330  Biso   1.000  C
  H28      1.0000 0.64000  0.40810  0.19690  Biso   1.000  H
  C79      1.0000 0.65150  0.24120  0.11400  Biso   1.000  C
  C80      1.0000 0.57250  0.24270  0.17050  Biso   1.000  C
  C81      1.0000 0.58490  0.20400  0.19930  Biso   1.000  C
  C82      1.0000 0.54440  0.16500  0.19910  Biso   1.000  C
  H29      1.0000 0.55560  0.13860  0.21870  Biso   1.000  H
  C83      1.0000 0.48660  0.16390  0.16990  Biso   1.000  C
  C84      1.0000 0.47240  0.20130  0.14010  Biso   1.000  C
  H30      1.0000 0.43460  0.19980  0.11930  Biso   1.000  H
  C85      1.0000 0.51430  0.24210  0.14030  Biso   1.000  C
  H31      1.0000 0.50350  0.26850  0.12060  Biso   1.000  H
  C86      1.0000 0.44020  0.12200  0.16890  Biso   1.000  C
  C87      1.0000 0.64680  0.20130  0.22680  Biso   1.000  C
  C88      1.0000 0.84930  0.51900  0.26550  Biso   1.000  C
  C89      1.0000 0.85640  0.51390  0.31050  Biso   1.000  C
  C90      1.0000 0.91440  0.51710  0.34010  Biso   1.000  C
  H32      1.0000 0.95020  0.52210  0.33230  Biso   1.000  H
  C91      1.0000 0.91800  0.51280  0.38080  Biso   1.000  C
  C92      1.0000 0.86610  0.50650  0.39410  Biso   1.000  C
  C93      1.0000 0.80870  0.49850  0.36420  Biso   1.000  C
  H33      1.0000 0.77400  0.48980  0.37220  Biso   1.000  H
  C94      1.0000 0.80330  0.50340  0.32180  Biso   1.000  C
  H34      1.0000 0.76490  0.49970  0.30190  Biso   1.000  H
  C95      1.0000 0.97820  0.51130  0.41110  Biso   1.000  C
  C96      1.0000 0.86330  0.50410  0.43760  Biso   1.000  C
  C97      1.0000 0.86470  0.45580  0.45670  Biso   1.000  C
  C98      1.0000 0.85790  0.45440  0.49600  Biso   1.000  C
  H35      1.0000 0.86210  0.42270  0.50980  Biso   1.000  H
  C99      1.0000 0.84510  0.49850  0.51500  Biso   1.000  C
  C100     1.0000 0.84410  0.54540  0.49540  Biso   1.000  C
  H36      1.0000 0.83600  0.57600  0.50760  Biso   1.000  H
  C101     1.0000 0.85540  0.54720  0.45640  Biso   1.000  C
  C102     1.0000 0.83320  0.49490  0.55530  Biso   1.000  C
  C103     1.0000 0.86350  0.40370  0.43740  Biso   1.000  C
  C104     1.0000 0.82540  0.67060  0.06080  Biso   1.000  C
  H37      1.0000 0.86660  0.66050  0.07250  Biso   1.000  H
  C105     1.0000 0.81230  0.71030  0.03110  Biso   1.000  C
  H38      1.0000 0.84450  0.72400  0.02240  Biso   1.000  H
  C106     1.0000 0.75660  0.72860  0.01550  Biso   1.000  C
  C107     1.0000 0.71480  0.70420  0.02870  Biso   1.000  C
  H39      1.0000 0.67330  0.71160  0.01510  Biso   1.000  H
  C108     1.0000 0.72670  0.66880  0.06070  Biso   1.000  C
  H40      1.0000 0.69650  0.66060  0.07330  Biso   1.000  H
  F45      1.0000 0.68880  0.22740  0.23640  Biso   1.000  F
  F46      1.0000 0.98720  0.52150  0.44540  Biso   1.000  F
  F47      1.0000 0.85000  0.64200  0.46460  Biso   1.000  F
  F48      1.0000 0.77480  0.59120  0.40460  Biso   1.000  F
  F49      1.0000 0.88140  0.61420  0.42190  Biso   1.000  F
  C109     1.0000 0.83440  0.59300  0.44000  Biso   1.000  C
  F50      1.0000 0.56790  0.38180  0.23200  Biso   1.000  F
  F51      1.0000 0.57400  0.30560  0.24490  Biso   1.000  F
  F52      1.0000 0.50250  0.35170  0.18840  Biso   1.000  F
  C110     1.0000 0.56360  0.33190  0.21240  Biso   1.000  C
  Zn9      1.0000 0.59464  0.02871  0.30025  Biso   1.000  Zn
  Zn10     1.0000 0.68130  0.96324  0.37345  Biso   1.000  Zn
  Zn11     1.0000 0.74045  0.02623  0.31780  Biso   1.000  Zn
  Zn12     1.0000 0.69328  0.08636  0.38278  Biso   1.000  Zn
  F53      1.0000 0.34050  0.89760  0.23006  Biso   1.000  F
  F54      1.0000 0.29720  0.86570  0.27240  Biso   1.000  F
  F55      1.0000 0.32710  0.81490  0.23340  Biso   1.000  F
  F56      1.0000 0.42660  0.66300  0.25270  Biso   1.000  F
  F57      1.0000 0.49620  0.70570  0.30730  Biso   1.000  F
  F58      1.0000 0.43090  0.74700  0.24510  Biso   1.000  F
  F59      1.0000 0.90160  0.74040  0.42110  Biso   1.000  F
  F60      1.0000 0.83640  0.69460  0.36070  Biso   1.000  F
  F61      1.0000 0.79970  0.74360  0.40220  Biso   1.000  F
  F62      1.0000 0.83900  0.65900  0.24830  Biso   1.000  F
  F63      1.0000 0.85060  0.73750  0.24090  Biso   1.000  F
  F64      1.0000 0.80310  0.69290  0.29390  Biso   1.000  F
  F65      1.0000 0.47370  0.00510  0.10290  Biso   1.000  F
  F66      1.0000 0.50660  0.96930  0.06190  Biso   1.000  F
  F67      1.0000 0.50410  0.06220  0.07800  Biso   1.000  F
  F68      1.0000 0.62790  0.85730  0.03830  Biso   1.000  F
  F69      1.0000 0.69360  0.88960  0.09510  Biso   1.000  F
  F70      1.0000 0.58680  0.89570  0.07970  Biso   1.000  F
  O27      1.0000 0.54230  0.96792  0.30241  Biso   1.000  O
  O28      1.0000 0.60890  0.91885  0.34998  Biso   1.000  O
  O29      1.0000 0.29060  0.58730  0.31750  Biso   1.000  O
  O30      1.0000 0.23360  0.63449  0.34764  Biso   1.000  O
  O31      1.0000 0.74770  0.91700  0.36828  Biso   1.000  O
  O32      1.0000 0.79340  0.96370  0.32996  Biso   1.000  O
  O33      1.0000 0.04340  0.58827  0.30310  Biso   1.000  O
  O34      1.0000 0.10870  0.62350  0.35980  Biso   1.000  O
  O35      1.0000 0.70450  0.01610  0.25821  Biso   1.000  O
  O36      1.0000 0.60220  0.02657  0.24443  Biso   1.000  O
  O37      1.0000 0.68290  0.03670  0.93012  Biso   1.000  O
  O38      1.0000 0.66160  0.95230  0.92713  Biso   1.000  O
  O39      1.0000 0.67414  0.02584  0.34222  Biso   1.000  O
  N3       1.0000 0.71780  0.14680  0.42710  Biso   1.000  N
  C111     1.0000 0.55700  0.92910  0.32480  Biso   1.000  C
  C112     1.0000 0.50690  0.88890  0.32100  Biso   1.000  C
  C113     1.0000 0.45090  0.89130  0.29120  Biso   1.000  C
  H41      1.0000 0.44240  0.91930  0.27290  Biso   1.000  H
  C114     1.0000 0.40620  0.85250  0.28770  Biso   1.000  C
  C115     1.0000 0.41720  0.81030  0.31400  Biso   1.000  C
  C116     1.0000 0.47510  0.80940  0.34560  Biso   1.000  C
  H42      1.0000 0.48350  0.78200  0.36440  Biso   1.000  H
  C117     1.0000 0.51910  0.84790  0.34940  Biso   1.000  C
  H43      1.0000 0.55650  0.84660  0.37060  Biso   1.000  H
  C118     1.0000 0.34520  0.85690  0.25650  Biso   1.000  C
  C119     1.0000 0.37530  0.76610  0.31350  Biso   1.000  C
  C120     1.0000 0.38240  0.71980  0.29430  Biso   1.000  C
  C121     1.0000 0.34650  0.67670  0.30060  Biso   1.000  C
  H44      1.0000 0.35070  0.64520  0.28810  Biso   1.000  H
  C122     1.0000 0.30730  0.67850  0.32300  Biso   1.000  C
  C123     1.0000 0.29810  0.72500  0.34010  Biso   1.000  C
  H45      1.0000 0.26940  0.72790  0.35470  Biso   1.000  H
  C124     1.0000 0.33350  0.76800  0.33500  Biso   1.000  C
  H46      1.0000 0.32800  0.79950  0.34700  Biso   1.000  H
  C125     1.0000 0.27170  0.63100  0.33030  Biso   1.000  C
  C126     1.0000 0.43750  0.70970  0.27880  Biso   1.000  C
  C127     1.0000 0.78300  0.92250  0.34610  Biso   1.000  C
  C128     1.0000 0.82030  0.87650  0.34080  Biso   1.000  C
  C129     1.0000 0.81560  0.83020  0.35970  Biso   1.000  C
  H47      1.0000 0.79020  0.82840  0.37670  Biso   1.000  H
  C130     1.0000 0.84680  0.78670  0.35440  Biso   1.000  C
  C131     1.0000 0.88700  0.78830  0.33160  Biso   1.000  C
  C132     1.0000 0.89070  0.83430  0.31040  Biso   1.000  C
  C133     1.0000 0.85690  0.87710  0.31670  Biso   1.000  C
  H48      1.0000 0.86000  0.90810  0.30310  Biso   1.000  H
  C134     1.0000 0.84850  0.74120  0.38600  Biso   1.000  C
  C135     1.0000 0.92750  0.74270  0.32950  Biso   1.000  C
  C136     1.0000 0.91510  0.70400  0.30070  Biso   1.000  C
  C137     1.0000 0.95560  0.66500  0.30090  Biso   1.000  C
  H49      1.0000 0.94440  0.63860  0.28130  Biso   1.000  H
  C138     1.0000 0.01340  0.66390  0.33010  Biso   1.000  C
  C139     1.0000 0.02760  0.70130  0.35990  Biso   1.000  C
  H50      1.0000 0.06540  0.69980  0.38070  Biso   1.000  H
  C140     1.0000 0.98570  0.74210  0.35970  Biso   1.000  C
  H51      1.0000 0.99650  0.76850  0.37940  Biso   1.000  H
  C141     1.0000 0.05980  0.62200  0.33110  Biso   1.000  C
  C142     1.0000 0.85320  0.70130  0.27320  Biso   1.000  C
  C143     1.0000 0.65070  0.01900  0.23450  Biso   1.000  C
  C144     1.0000 0.64360  0.01390  0.18950  Biso   1.000  C
  C145     1.0000 0.58560  0.01710  0.15990  Biso   1.000  C
  H52      1.0000 0.54980  0.02210  0.16770  Biso   1.000  H
  C146     1.0000 0.58200  0.01280  0.11920  Biso   1.000  C
  C147     1.0000 0.63390  0.00650  0.10590  Biso   1.000  C
  C148     1.0000 0.69130  0.99850  0.13580  Biso   1.000  C
  H53      1.0000 0.72600  0.98980  0.12780  Biso   1.000  H
  C149     1.0000 0.69670  0.00340  0.17820  Biso   1.000  C
  H54      1.0000 0.73510  0.99970  0.19810  Biso   1.000  H
  C150     1.0000 0.52180  0.01130  0.08890  Biso   1.000  C
  C151     1.0000 0.63670  0.00410  0.06240  Biso   1.000  C
  C152     1.0000 0.63530  0.95580  0.04330  Biso   1.000  C
  C153     1.0000 0.64210  0.95440  0.00400  Biso   1.000  C
  H55      1.0000 0.63790  0.92270  0.99020  Biso   1.000  H
  C154     1.0000 0.65490  0.99850  0.98500  Biso   1.000  C
  C155     1.0000 0.65590  0.04540  0.00460  Biso   1.000  C
  H56      1.0000 0.66400  0.07600  0.99240  Biso   1.000  H
  C156     1.0000 0.64460  0.04720  0.04360  Biso   1.000  C
  C157     1.0000 0.66680  0.99490  0.94470  Biso   1.000  C
  C158     1.0000 0.63650  0.90370  0.06260  Biso   1.000  C
  C159     1.0000 0.67460  0.17060  0.43920  Biso   1.000  C
  H57      1.0000 0.63340  0.16050  0.42750  Biso   1.000  H
  C160     1.0000 0.68770  0.21030  0.46890  Biso   1.000  C
  H58      1.0000 0.65550  0.22400  0.47760  Biso   1.000  H
  C161     1.0000 0.74340  0.22860  0.48450  Biso   1.000  C
  C162     1.0000 0.78520  0.20420  0.47130  Biso   1.000  C
  H59      1.0000 0.82670  0.21160  0.48490  Biso   1.000  H
  C163     1.0000 0.77330  0.16880  0.43930  Biso   1.000  C
  H60      1.0000 0.80350  0.16060  0.42670  Biso   1.000  H
  F71      1.0000 0.81120  0.72740  0.26360  Biso   1.000  F
  F72      1.0000 0.51280  0.02150  0.05460  Biso   1.000  F
  F73      1.0000 0.65000  0.14200  0.03540  Biso   1.000  F
  F74      1.0000 0.72520  0.09120  0.09540  Biso   1.000  F
  F75      1.0000 0.61860  0.11420  0.07810  Biso   1.000  F
  C164     1.0000 0.66560  0.09300  0.06000  Biso   1.000  C
  F76      1.0000 0.93210  0.88180  0.26800  Biso   1.000  F
  F77      1.0000 0.92600  0.80560  0.25510  Biso   1.000  F
  F78      1.0000 0.99750  0.85170  0.31160  Biso   1.000  F
  C165     1.0000 0.93640  0.83190  0.28760  Biso   1.000  C
  Zn13     1.0000 0.09464  0.52871  0.30025  Biso   1.000  Zn
  Zn14     1.0000 0.18130  0.46324  0.37345  Biso   1.000  Zn
  Zn15     1.0000 0.24045  0.52623  0.31780  Biso   1.000  Zn
  Zn16     1.0000 0.19328  0.58636  0.38278  Biso   1.000  Zn
  F79      1.0000 0.84050  0.39760  0.23006  Biso   1.000  F
  F80      1.0000 0.79720  0.36570  0.27240  Biso   1.000  F
  F81      1.0000 0.82710  0.31490  0.23340  Biso   1.000  F
  F82      1.0000 0.92660  0.16300  0.25270  Biso   1.000  F
  F83      1.0000 0.99620  0.20570  0.30730  Biso   1.000  F
  F84      1.0000 0.93090  0.24700  0.24510  Biso   1.000  F
  F85      1.0000 0.40160  0.24040  0.42110  Biso   1.000  F
  F86      1.0000 0.33640  0.19460  0.36070  Biso   1.000  F
  F87      1.0000 0.29970  0.24360  0.40220  Biso   1.000  F
  F88      1.0000 0.33900  0.15900  0.24830  Biso   1.000  F
  F89      1.0000 0.35060  0.23750  0.24090  Biso   1.000  F
  F90      1.0000 0.30310  0.19290  0.29390  Biso   1.000  F
  F91      1.0000 0.97370  0.50510  0.10290  Biso   1.000  F
  F92      1.0000 0.00660  0.46930  0.06190  Biso   1.000  F
  F93      1.0000 0.00410  0.56220  0.07800  Biso   1.000  F
  F94      1.0000 0.12790  0.35730  0.03830  Biso   1.000  F
  F95      1.0000 0.19360  0.38960  0.09510  Biso   1.000  F
  F96      1.0000 0.08680  0.39570  0.07970  Biso   1.000  F
  O40      1.0000 0.04230  0.46792  0.30241  Biso   1.000  O
  O41      1.0000 0.10890  0.41885  0.34998  Biso   1.000  O
  O42      1.0000 0.79060  0.08730  0.31750  Biso   1.000  O
  O43      1.0000 0.73360  0.13449  0.34764  Biso   1.000  O
  O44      1.0000 0.24770  0.41700  0.36828  Biso   1.000  O
  O45      1.0000 0.29340  0.46370  0.32996  Biso   1.000  O
  O46      1.0000 0.54340  0.08827  0.30310  Biso   1.000  O
  O47      1.0000 0.60870  0.12350  0.35980  Biso   1.000  O
  O48      1.0000 0.20450  0.51610  0.25821  Biso   1.000  O
  O49      1.0000 0.10220  0.52657  0.24443  Biso   1.000  O
  O50      1.0000 0.18290  0.53670  0.93012  Biso   1.000  O
  O51      1.0000 0.16160  0.45230  0.92713  Biso   1.000  O
  O52      1.0000 0.17414  0.52584  0.34222  Biso   1.000  O
  N4       1.0000 0.21780  0.64680  0.42710  Biso   1.000  N
  C166     1.0000 0.05700  0.42910  0.32480  Biso   1.000  C
  C167     1.0000 0.00690  0.38890  0.32100  Biso   1.000  C
  C168     1.0000 0.95090  0.39130  0.29120  Biso   1.000  C
  H61      1.0000 0.94240  0.41930  0.27290  Biso   1.000  H
  C169     1.0000 0.90620  0.35250  0.28770  Biso   1.000  C
  C170     1.0000 0.91720  0.31030  0.31400  Biso   1.000  C
  C171     1.0000 0.97510  0.30940  0.34560  Biso   1.000  C
  H62      1.0000 0.98350  0.28200  0.36440  Biso   1.000  H
  C172     1.0000 0.01910  0.34790  0.34940  Biso   1.000  C
  H63      1.0000 0.05650  0.34660  0.37060  Biso   1.000  H
  C173     1.0000 0.84520  0.35690  0.25650  Biso   1.000  C
  C174     1.0000 0.87530  0.26610  0.31350  Biso   1.000  C
  C175     1.0000 0.88240  0.21980  0.29430  Biso   1.000  C
  C176     1.0000 0.84650  0.17670  0.30060  Biso   1.000  C
  H64      1.0000 0.85070  0.14520  0.28810  Biso   1.000  H
  C177     1.0000 0.80730  0.17850  0.32300  Biso   1.000  C
  C178     1.0000 0.79810  0.22500  0.34010  Biso   1.000  C
  H65      1.0000 0.76940  0.22790  0.35470  Biso   1.000  H
  C179     1.0000 0.83350  0.26800  0.33500  Biso   1.000  C
  H66      1.0000 0.82800  0.29950  0.34700  Biso   1.000  H
  C180     1.0000 0.77170  0.13100  0.33030  Biso   1.000  C
  C181     1.0000 0.93750  0.20970  0.27880  Biso   1.000  C
  C182     1.0000 0.28300  0.42250  0.34610  Biso   1.000  C
  C183     1.0000 0.32030  0.37650  0.34080  Biso   1.000  C
  C184     1.0000 0.31560  0.33020  0.35970  Biso   1.000  C
  H67      1.0000 0.29020  0.32840  0.37670  Biso   1.000  H
  C185     1.0000 0.34680  0.28670  0.35440  Biso   1.000  C
  C186     1.0000 0.38700  0.28830  0.33160  Biso   1.000  C
  C187     1.0000 0.39070  0.33430  0.31040  Biso   1.000  C
  C188     1.0000 0.35690  0.37710  0.31670  Biso   1.000  C
  H68      1.0000 0.36000  0.40810  0.30310  Biso   1.000  H
  C189     1.0000 0.34850  0.24120  0.38600  Biso   1.000  C
  C190     1.0000 0.42750  0.24270  0.32950  Biso   1.000  C
  C191     1.0000 0.41510  0.20400  0.30070  Biso   1.000  C
  C192     1.0000 0.45560  0.16500  0.30090  Biso   1.000  C
  H69      1.0000 0.44440  0.13860  0.28130  Biso   1.000  H
  C193     1.0000 0.51340  0.16390  0.33010  Biso   1.000  C
  C194     1.0000 0.52760  0.20130  0.35990  Biso   1.000  C
  H70      1.0000 0.56540  0.19980  0.38070  Biso   1.000  H
  C195     1.0000 0.48570  0.24210  0.35970  Biso   1.000  C
  H71      1.0000 0.49650  0.26850  0.37940  Biso   1.000  H
  C196     1.0000 0.55980  0.12200  0.33110  Biso   1.000  C
  C197     1.0000 0.35320  0.20130  0.27320  Biso   1.000  C
  C198     1.0000 0.15070  0.51900  0.23450  Biso   1.000  C
  C199     1.0000 0.14360  0.51390  0.18950  Biso   1.000  C
  C200     1.0000 0.08560  0.51710  0.15990  Biso   1.000  C
  H72      1.0000 0.04980  0.52210  0.16770  Biso   1.000  H
  C201     1.0000 0.08200  0.51280  0.11920  Biso   1.000  C
  C202     1.0000 0.13390  0.50650  0.10590  Biso   1.000  C
  C203     1.0000 0.19130  0.49850  0.13580  Biso   1.000  C
  H73      1.0000 0.22600  0.48980  0.12780  Biso   1.000  H
  C204     1.0000 0.19670  0.50340  0.17820  Biso   1.000  C
  H74      1.0000 0.23510  0.49970  0.19810  Biso   1.000  H
  C205     1.0000 0.02180  0.51130  0.08890  Biso   1.000  C
  C206     1.0000 0.13670  0.50410  0.06240  Biso   1.000  C
  C207     1.0000 0.13530  0.45580  0.04330  Biso   1.000  C
  C208     1.0000 0.14210  0.45440  0.00400  Biso   1.000  C
  H75      1.0000 0.13790  0.42270  0.99020  Biso   1.000  H
  C209     1.0000 0.15490  0.49850  0.98500  Biso   1.000  C
  C210     1.0000 0.15590  0.54540  0.00460  Biso   1.000  C
  H76      1.0000 0.16400  0.57600  0.99240  Biso   1.000  H
  C211     1.0000 0.14460  0.54720  0.04360  Biso   1.000  C
  C212     1.0000 0.16680  0.49490  0.94470  Biso   1.000  C
  C213     1.0000 0.13650  0.40370  0.06260  Biso   1.000  C
  C214     1.0000 0.17460  0.67060  0.43920  Biso   1.000  C
  H77      1.0000 0.13340  0.66050  0.42750  Biso   1.000  H
  C215     1.0000 0.18770  0.71030  0.46890  Biso   1.000  C
  H78      1.0000 0.15550  0.72400  0.47760  Biso   1.000  H
  C216     1.0000 0.24340  0.72860  0.48450  Biso   1.000  C
  C217     1.0000 0.28520  0.70420  0.47130  Biso   1.000  C
  H79      1.0000 0.32670  0.71160  0.48490  Biso   1.000  H
  C218     1.0000 0.27330  0.66880  0.43930  Biso   1.000  C
  H80      1.0000 0.30350  0.66060  0.42670  Biso   1.000  H
  F97      1.0000 0.31120  0.22740  0.26360  Biso   1.000  F
  F98      1.0000 0.01280  0.52150  0.05460  Biso   1.000  F
  F99      1.0000 0.15000  0.64200  0.03540  Biso   1.000  F
  F100     1.0000 0.22520  0.59120  0.09540  Biso   1.000  F
  F101     1.0000 0.11860  0.61420  0.07810  Biso   1.000  F
  C219     1.0000 0.16560  0.59300  0.06000  Biso   1.000  C
  F102     1.0000 0.43210  0.38180  0.26800  Biso   1.000  F
  F103     1.0000 0.42600  0.30560  0.25510  Biso   1.000  F
  F104     1.0000 0.49750  0.35170  0.31160  Biso   1.000  F
  C220     1.0000 0.43640  0.33190  0.28760  Biso   1.000  C
  Zn17     1.0000 0.59464  0.97129  0.80025  Biso   1.000  Zn
  Zn18     1.0000 0.68130  0.03676  0.87345  Biso   1.000  Zn
  Zn19     1.0000 0.74045  0.97377  0.81780  Biso   1.000  Zn
  Zn20     1.0000 0.69328  0.91364  0.88278  Biso   1.000  Zn
  F105     1.0000 0.34050  0.10240  0.73006  Biso   1.000  F
  F106     1.0000 0.29720  0.13430  0.77240  Biso   1.000  F
  F107     1.0000 0.32710  0.18510  0.73340  Biso   1.000  F
  F108     1.0000 0.42660  0.33700  0.75270  Biso   1.000  F
  F109     1.0000 0.49620  0.29430  0.80730  Biso   1.000  F
  F110     1.0000 0.43090  0.25300  0.74510  Biso   1.000  F
  F111     1.0000 0.90160  0.25960  0.92110  Biso   1.000  F
  F112     1.0000 0.83640  0.30540  0.86070  Biso   1.000  F
  F113     1.0000 0.79970  0.25640  0.90220  Biso   1.000  F
  F114     1.0000 0.83900  0.34100  0.74830  Biso   1.000  F
  F115     1.0000 0.85060  0.26250  0.74090  Biso   1.000  F
  F116     1.0000 0.80310  0.30710  0.79390  Biso   1.000  F
  F117     1.0000 0.47370  0.99490  0.60290  Biso   1.000  F
  F118     1.0000 0.50660  0.03070  0.56190  Biso   1.000  F
  F119     1.0000 0.50410  0.93780  0.57800  Biso   1.000  F
  F120     1.0000 0.62790  0.14270  0.53830  Biso   1.000  F
  F121     1.0000 0.69360  0.11040  0.59510  Biso   1.000  F
  F122     1.0000 0.58680  0.10430  0.57970  Biso   1.000  F
  O53      1.0000 0.54230  0.03208  0.80241  Biso   1.000  O
  O54      1.0000 0.60890  0.08115  0.84998  Biso   1.000  O
  O55      1.0000 0.29060  0.41270  0.81750  Biso   1.000  O
  O56      1.0000 0.23360  0.36551  0.84764  Biso   1.000  O
  O57      1.0000 0.74770  0.08300  0.86828  Biso   1.000  O
  O58      1.0000 0.79340  0.03630  0.82996  Biso   1.000  O
  O59      1.0000 0.04340  0.41173  0.80310  Biso   1.000  O
  O60      1.0000 0.10870  0.37650  0.85980  Biso   1.000  O
  O61      1.0000 0.70450  0.98390  0.75821  Biso   1.000  O
  O62      1.0000 0.60220  0.97343  0.74443  Biso   1.000  O
  O63      1.0000 0.68290  0.96330  0.43012  Biso   1.000  O
  O64      1.0000 0.66160  0.04770  0.42713  Biso   1.000  O
  O65      1.0000 0.67414  0.97416  0.84222  Biso   1.000  O
  N5       1.0000 0.71780  0.85320  0.92710  Biso   1.000  N
  C221     1.0000 0.55700  0.07090  0.82480  Biso   1.000  C
  C222     1.0000 0.50690  0.11110  0.82100  Biso   1.000  C
  C223     1.0000 0.45090  0.10870  0.79120  Biso   1.000  C
  H81      1.0000 0.44240  0.08070  0.77290  Biso   1.000  H
  C224     1.0000 0.40620  0.14750  0.78770  Biso   1.000  C
  C225     1.0000 0.41720  0.18970  0.81400  Biso   1.000  C
  C226     1.0000 0.47510  0.19060  0.84560  Biso   1.000  C
  H82      1.0000 0.48350  0.21800  0.86440  Biso   1.000  H
  C227     1.0000 0.51910  0.15210  0.84940  Biso   1.000  C
  H83      1.0000 0.55650  0.15340  0.87060  Biso   1.000  H
  C228     1.0000 0.34520  0.14310  0.75650  Biso   1.000  C
  C229     1.0000 0.37530  0.23390  0.81350  Biso   1.000  C
  C230     1.0000 0.38240  0.28020  0.79430  Biso   1.000  C
  C231     1.0000 0.34650  0.32330  0.80060  Biso   1.000  C
  H84      1.0000 0.35070  0.35480  0.78810  Biso   1.000  H
  C232     1.0000 0.30730  0.32150  0.82300  Biso   1.000  C
  C233     1.0000 0.29810  0.27500  0.84010  Biso   1.000  C
  H85      1.0000 0.26940  0.27210  0.85470  Biso   1.000  H
  C234     1.0000 0.33350  0.23200  0.83500  Biso   1.000  C
  H86      1.0000 0.32800  0.20050  0.84700  Biso   1.000  H
  C235     1.0000 0.27170  0.36900  0.83030  Biso   1.000  C
  C236     1.0000 0.43750  0.29030  0.77880  Biso   1.000  C
  C237     1.0000 0.78300  0.07750  0.84610  Biso   1.000  C
  C238     1.0000 0.82030  0.12350  0.84080  Biso   1.000  C
  C239     1.0000 0.81560  0.16980  0.85970  Biso   1.000  C
  H87      1.0000 0.79020  0.17160  0.87670  Biso   1.000  H
  C240     1.0000 0.84680  0.21330  0.85440  Biso   1.000  C
  C241     1.0000 0.88700  0.21170  0.83160  Biso   1.000  C
  C242     1.0000 0.89070  0.16570  0.81040  Biso   1.000  C
  C243     1.0000 0.85690  0.12290  0.81670  Biso   1.000  C
  H88      1.0000 0.86000  0.09190  0.80310  Biso   1.000  H
  C244     1.0000 0.84850  0.25880  0.88600  Biso   1.000  C
  C245     1.0000 0.92750  0.25730  0.82950  Biso   1.000  C
  C246     1.0000 0.91510  0.29600  0.80070  Biso   1.000  C
  C247     1.0000 0.95560  0.33500  0.80090  Biso   1.000  C
  H89      1.0000 0.94440  0.36140  0.78130  Biso   1.000  H
  C248     1.0000 0.01340  0.33610  0.83010  Biso   1.000  C
  C249     1.0000 0.02760  0.29870  0.85990  Biso   1.000  C
  H90      1.0000 0.06540  0.30020  0.88070  Biso   1.000  H
  C250     1.0000 0.98570  0.25790  0.85970  Biso   1.000  C
  H91      1.0000 0.99650  0.23150  0.87940  Biso   1.000  H
  C251     1.0000 0.05980  0.37800  0.83110  Biso   1.000  C
  C252     1.0000 0.85320  0.29870  0.77320  Biso   1.000  C
  C253     1.0000 0.65070  0.98100  0.73450  Biso   1.000  C
  C254     1.0000 0.64360  0.98610  0.68950  Biso   1.000  C
  C255     1.0000 0.58560  0.98290  0.65990  Biso   1.000  C
  H92      1.0000 0.54980  0.97790  0.66770  Biso   1.000  H
  C256     1.0000 0.58200  0.98720  0.61920  Biso   1.000  C
  C257     1.0000 0.63390  0.99350  0.60590  Biso   1.000  C
  C258     1.0000 0.69130  0.00150  0.63580  Biso   1.000  C
  H93      1.0000 0.72600  0.01020  0.62780  Biso   1.000  H
  C259     1.0000 0.69670  0.99660  0.67820  Biso   1.000  C
  H94      1.0000 0.73510  0.00030  0.69810  Biso   1.000  H
  C260     1.0000 0.52180  0.98870  0.58890  Biso   1.000  C
  C261     1.0000 0.63670  0.99590  0.56240  Biso   1.000  C
  C262     1.0000 0.63530  0.04420  0.54330  Biso   1.000  C
  C263     1.0000 0.64210  0.04560  0.50400  Biso   1.000  C
  H95      1.0000 0.63790  0.07730  0.49020  Biso   1.000  H
  C264     1.0000 0.65490  0.00150  0.48500  Biso   1.000  C
  C265     1.0000 0.65590  0.95460  0.50460  Biso   1.000  C
  H96      1.0000 0.66400  0.92400  0.49240  Biso   1.000  H
  C266     1.0000 0.64460  0.95280  0.54360  Biso   1.000  C
  C267     1.0000 0.66680  0.00510  0.44470  Biso   1.000  C
  C268     1.0000 0.63650  0.09630  0.56260  Biso   1.000  C
  C269     1.0000 0.67460  0.82940  0.93920  Biso   1.000  C
  H97      1.0000 0.63340  0.83950  0.92750  Biso   1.000  H
  C270     1.0000 0.68770  0.78970  0.96890  Biso   1.000  C
  H98      1.0000 0.65550  0.77600  0.97760  Biso   1.000  H
  C271     1.0000 0.74340  0.77140  0.98450  Biso   1.000  C
  C272     1.0000 0.78520  0.79580  0.97130  Biso   1.000  C
  H99      1.0000 0.82670  0.78840  0.98490  Biso   1.000  H
  C273     1.0000 0.77330  0.83120  0.93930  Biso   1.000  C
  H100     1.0000 0.80350  0.83940  0.92670  Biso   1.000  H
  F123     1.0000 0.81120  0.27260  0.76360  Biso   1.000  F
  F124     1.0000 0.51280  0.97850  0.55460  Biso   1.000  F
  F125     1.0000 0.65000  0.85800  0.53540  Biso   1.000  F
  F126     1.0000 0.72520  0.90880  0.59540  Biso   1.000  F
  F127     1.0000 0.61860  0.88580  0.57810  Biso   1.000  F
  C274     1.0000 0.66560  0.90700  0.56000  Biso   1.000  C
  F128     1.0000 0.93210  0.11820  0.76800  Biso   1.000  F
  F129     1.0000 0.92600  0.19440  0.75510  Biso   1.000  F
  F130     1.0000 0.99750  0.14830  0.81160  Biso   1.000  F
  C275     1.0000 0.93640  0.16810  0.78760  Biso   1.000  C
  Zn21     1.0000 0.09464  0.47129  0.80025  Biso   1.000  Zn
  Zn22     1.0000 0.18130  0.53676  0.87345  Biso   1.000  Zn
  Zn23     1.0000 0.24045  0.47377  0.81780  Biso   1.000  Zn
  Zn24     1.0000 0.19328  0.41364  0.88278  Biso   1.000  Zn
  F131     1.0000 0.84050  0.60240  0.73006  Biso   1.000  F
  F132     1.0000 0.79720  0.63430  0.77240  Biso   1.000  F
  F133     1.0000 0.82710  0.68510  0.73340  Biso   1.000  F
  F134     1.0000 0.92660  0.83700  0.75270  Biso   1.000  F
  F135     1.0000 0.99620  0.79430  0.80730  Biso   1.000  F
  F136     1.0000 0.93090  0.75300  0.74510  Biso   1.000  F
  F137     1.0000 0.40160  0.75960  0.92110  Biso   1.000  F
  F138     1.0000 0.33640  0.80540  0.86070  Biso   1.000  F
  F139     1.0000 0.29970  0.75640  0.90220  Biso   1.000  F
  F140     1.0000 0.33900  0.84100  0.74830  Biso   1.000  F
  F141     1.0000 0.35060  0.76250  0.74090  Biso   1.000  F
  F142     1.0000 0.30310  0.80710  0.79390  Biso   1.000  F
  F143     1.0000 0.97370  0.49490  0.60290  Biso   1.000  F
  F144     1.0000 0.00660  0.53070  0.56190  Biso   1.000  F
  F145     1.0000 0.00410  0.43780  0.57800  Biso   1.000  F
  F146     1.0000 0.12790  0.64270  0.53830  Biso   1.000  F
  F147     1.0000 0.19360  0.61040  0.59510  Biso   1.000  F
  F148     1.0000 0.08680  0.60430  0.57970  Biso   1.000  F
  O66      1.0000 0.04230  0.53208  0.80241  Biso   1.000  O
  O67      1.0000 0.10890  0.58115  0.84998  Biso   1.000  O
  O68      1.0000 0.79060  0.91270  0.81750  Biso   1.000  O
  O69      1.0000 0.73360  0.86551  0.84764  Biso   1.000  O
  O70      1.0000 0.24770  0.58300  0.86828  Biso   1.000  O
  O71      1.0000 0.29340  0.53630  0.82996  Biso   1.000  O
  O72      1.0000 0.54340  0.91173  0.80310  Biso   1.000  O
  O73      1.0000 0.60870  0.87650  0.85980  Biso   1.000  O
  O74      1.0000 0.20450  0.48390  0.75821  Biso   1.000  O
  O75      1.0000 0.10220  0.47343  0.74443  Biso   1.000  O
  O76      1.0000 0.18290  0.46330  0.43012  Biso   1.000  O
  O77      1.0000 0.16160  0.54770  0.42713  Biso   1.000  O
  O78      1.0000 0.17414  0.47416  0.84222  Biso   1.000  O
  N6       1.0000 0.21780  0.35320  0.92710  Biso   1.000  N
  C276     1.0000 0.05700  0.57090  0.82480  Biso   1.000  C
  C277     1.0000 0.00690  0.61110  0.82100  Biso   1.000  C
  C278     1.0000 0.95090  0.60870  0.79120  Biso   1.000  C
  H101     1.0000 0.94240  0.58070  0.77290  Biso   1.000  H
  C279     1.0000 0.90620  0.64750  0.78770  Biso   1.000  C
  C280     1.0000 0.91720  0.68970  0.81400  Biso   1.000  C
  C281     1.0000 0.97510  0.69060  0.84560  Biso   1.000  C
  H102     1.0000 0.98350  0.71800  0.86440  Biso   1.000  H
  C282     1.0000 0.01910  0.65210  0.84940  Biso   1.000  C
  H103     1.0000 0.05650  0.65340  0.87060  Biso   1.000  H
  C283     1.0000 0.84520  0.64310  0.75650  Biso   1.000  C
  C284     1.0000 0.87530  0.73390  0.81350  Biso   1.000  C
  C285     1.0000 0.88240  0.78020  0.79430  Biso   1.000  C
  C286     1.0000 0.84650  0.82330  0.80060  Biso   1.000  C
  H104     1.0000 0.85070  0.85480  0.78810  Biso   1.000  H
  C287     1.0000 0.80730  0.82150  0.82300  Biso   1.000  C
  C288     1.0000 0.79810  0.77500  0.84010  Biso   1.000  C
  H105     1.0000 0.76940  0.77210  0.85470  Biso   1.000  H
  C289     1.0000 0.83350  0.73200  0.83500  Biso   1.000  C
  H106     1.0000 0.82800  0.70050  0.84700  Biso   1.000  H
  C290     1.0000 0.77170  0.86900  0.83030  Biso   1.000  C
  C291     1.0000 0.93750  0.79030  0.77880  Biso   1.000  C
  C292     1.0000 0.28300  0.57750  0.84610  Biso   1.000  C
  C293     1.0000 0.32030  0.62350  0.84080  Biso   1.000  C
  C294     1.0000 0.31560  0.66980  0.85970  Biso   1.000  C
  H107     1.0000 0.29020  0.67160  0.87670  Biso   1.000  H
  C295     1.0000 0.34680  0.71330  0.85440  Biso   1.000  C
  C296     1.0000 0.38700  0.71170  0.83160  Biso   1.000  C
  C297     1.0000 0.39070  0.66570  0.81040  Biso   1.000  C
  C298     1.0000 0.35690  0.62290  0.81670  Biso   1.000  C
  H108     1.0000 0.36000  0.59190  0.80310  Biso   1.000  H
  C299     1.0000 0.34850  0.75880  0.88600  Biso   1.000  C
  C300     1.0000 0.42750  0.75730  0.82950  Biso   1.000  C
  C301     1.0000 0.41510  0.79600  0.80070  Biso   1.000  C
  C302     1.0000 0.45560  0.83500  0.80090  Biso   1.000  C
  H109     1.0000 0.44440  0.86140  0.78130  Biso   1.000  H
  C303     1.0000 0.51340  0.83610  0.83010  Biso   1.000  C
  C304     1.0000 0.52760  0.79870  0.85990  Biso   1.000  C
  H110     1.0000 0.56540  0.80020  0.88070  Biso   1.000  H
  C305     1.0000 0.48570  0.75790  0.85970  Biso   1.000  C
  H111     1.0000 0.49650  0.73150  0.87940  Biso   1.000  H
  C306     1.0000 0.55980  0.87800  0.83110  Biso   1.000  C
  C307     1.0000 0.35320  0.79870  0.77320  Biso   1.000  C
  C308     1.0000 0.15070  0.48100  0.73450  Biso   1.000  C
  C309     1.0000 0.14360  0.48610  0.68950  Biso   1.000  C
  C310     1.0000 0.08560  0.48290  0.65990  Biso   1.000  C
  H112     1.0000 0.04980  0.47790  0.66770  Biso   1.000  H
  C311     1.0000 0.08200  0.48720  0.61920  Biso   1.000  C
  C312     1.0000 0.13390  0.49350  0.60590  Biso   1.000  C
  C313     1.0000 0.19130  0.50150  0.63580  Biso   1.000  C
  H113     1.0000 0.22600  0.51020  0.62780  Biso   1.000  H
  C314     1.0000 0.19670  0.49660  0.67820  Biso   1.000  C
  H114     1.0000 0.23510  0.50030  0.69810  Biso   1.000  H
  C315     1.0000 0.02180  0.48870  0.58890  Biso   1.000  C
  C316     1.0000 0.13670  0.49590  0.56240  Biso   1.000  C
  C317     1.0000 0.13530  0.54420  0.54330  Biso   1.000  C
  C318     1.0000 0.14210  0.54560  0.50400  Biso   1.000  C
  H115     1.0000 0.13790  0.57730  0.49020  Biso   1.000  H
  C319     1.0000 0.15490  0.50150  0.48500  Biso   1.000  C
  C320     1.0000 0.15590  0.45460  0.50460  Biso   1.000  C
  H116     1.0000 0.16400  0.42400  0.49240  Biso   1.000  H
  C321     1.0000 0.14460  0.45280  0.54360  Biso   1.000  C
  C322     1.0000 0.16680  0.50510  0.44470  Biso   1.000  C
  C323     1.0000 0.13650  0.59630  0.56260  Biso   1.000  C
  C324     1.0000 0.17460  0.32940  0.93920  Biso   1.000  C
  H117     1.0000 0.13340  0.33950  0.92750  Biso   1.000  H
  C325     1.0000 0.18770  0.28970  0.96890  Biso   1.000  C
  H118     1.0000 0.15550  0.27600  0.97760  Biso   1.000  H
  C326     1.0000 0.24340  0.27140  0.98450  Biso   1.000  C
  C327     1.0000 0.28520  0.29580  0.97130  Biso   1.000  C
  H119     1.0000 0.32670  0.28840  0.98490  Biso   1.000  H
  C328     1.0000 0.27330  0.33120  0.93930  Biso   1.000  C
  H120     1.0000 0.30350  0.33940  0.92670  Biso   1.000  H
  F149     1.0000 0.31120  0.77260  0.76360  Biso   1.000  F
  F150     1.0000 0.01280  0.47850  0.55460  Biso   1.000  F
  F151     1.0000 0.15000  0.35800  0.53540  Biso   1.000  F
  F152     1.0000 0.22520  0.40880  0.59540  Biso   1.000  F
  F153     1.0000 0.11860  0.38580  0.57810  Biso   1.000  F
  C329     1.0000 0.16560  0.40700  0.56000  Biso   1.000  C
  F154     1.0000 0.43210  0.61820  0.76800  Biso   1.000  F
  F155     1.0000 0.42600  0.69440  0.75510  Biso   1.000  F
  F156     1.0000 0.49750  0.64830  0.81160  Biso   1.000  F
  C330     1.0000 0.43640  0.66810  0.78760  Biso   1.000  C
  Zn25     1.0000 0.40536  0.97129  0.69975  Biso   1.000  Zn
  Zn26     1.0000 0.31870  0.03676  0.62655  Biso   1.000  Zn
  Zn27     1.0000 0.25955  0.97377  0.68220  Biso   1.000  Zn
  Zn28     1.0000 0.30672  0.91364  0.61722  Biso   1.000  Zn
  F157     1.0000 0.65950  0.10240  0.76994  Biso   1.000  F
  F158     1.0000 0.70280  0.13430  0.72760  Biso   1.000  F
  F159     1.0000 0.67290  0.18510  0.76660  Biso   1.000  F
  F160     1.0000 0.57340  0.33700  0.74730  Biso   1.000  F
  F161     1.0000 0.50380  0.29430  0.69270  Biso   1.000  F
  F162     1.0000 0.56910  0.25300  0.75490  Biso   1.000  F
  F163     1.0000 0.09840  0.25960  0.57890  Biso   1.000  F
  F164     1.0000 0.16360  0.30540  0.63930  Biso   1.000  F
  F165     1.0000 0.20030  0.25640  0.59780  Biso   1.000  F
  F166     1.0000 0.16100  0.34100  0.75170  Biso   1.000  F
  F167     1.0000 0.14940  0.26250  0.75910  Biso   1.000  F
  F168     1.0000 0.19690  0.30710  0.70610  Biso   1.000  F
  F169     1.0000 0.52630  0.99490  0.89710  Biso   1.000  F
  F170     1.0000 0.49340  0.03070  0.93810  Biso   1.000  F
  F171     1.0000 0.49590  0.93780  0.92200  Biso   1.000  F
  F172     1.0000 0.37210  0.14270  0.96170  Biso   1.000  F
  F173     1.0000 0.30640  0.11040  0.90490  Biso   1.000  F
  F174     1.0000 0.41320  0.10430  0.92030  Biso   1.000  F
  O79      1.0000 0.45770  0.03208  0.69759  Biso   1.000  O
  O80      1.0000 0.39110  0.08115  0.65002  Biso   1.000  O
  O81      1.0000 0.70940  0.41270  0.68250  Biso   1.000  O
  O82      1.0000 0.76640  0.36551  0.65236  Biso   1.000  O
  O83      1.0000 0.25230  0.08300  0.63172  Biso   1.000  O
  O84      1.0000 0.20660  0.03630  0.67004  Biso   1.000  O
  O85      1.0000 0.95660  0.41173  0.69690  Biso   1.000  O
  O86      1.0000 0.89130  0.37650  0.64020  Biso   1.000  O
  O87      1.0000 0.29550  0.98390  0.74179  Biso   1.000  O
  O88      1.0000 0.39780  0.97343  0.75557  Biso   1.000  O
  O89      1.0000 0.31710  0.96330  0.06988  Biso   1.000  O
  O90      1.0000 0.33840  0.04770  0.07287  Biso   1.000  O
  O91      1.0000 0.32586  0.97416  0.65778  Biso   1.000  O
  N7       1.0000 0.28220  0.85320  0.57290  Biso   1.000  N
  C331     1.0000 0.44300  0.07090  0.67520  Biso   1.000  C
  C332     1.0000 0.49310  0.11110  0.67900  Biso   1.000  C
  C333     1.0000 0.54910  0.10870  0.70880  Biso   1.000  C
  H121     1.0000 0.55760  0.08070  0.72710  Biso   1.000  H
  C334     1.0000 0.59380  0.14750  0.71230  Biso   1.000  C
  C335     1.0000 0.58280  0.18970  0.68600  Biso   1.000  C
  C336     1.0000 0.52490  0.19060  0.65440  Biso   1.000  C
  H122     1.0000 0.51650  0.21800  0.63560  Biso   1.000  H
  C337     1.0000 0.48090  0.15210  0.65060  Biso   1.000  C
  H123     1.0000 0.44350  0.15340  0.62940  Biso   1.000  H
  C338     1.0000 0.65480  0.14310  0.74350  Biso   1.000  C
  C339     1.0000 0.62470  0.23390  0.68650  Biso   1.000  C
  C340     1.0000 0.61760  0.28020  0.70570  Biso   1.000  C
  C341     1.0000 0.65350  0.32330  0.69940  Biso   1.000  C
  H124     1.0000 0.64930  0.35480  0.71190  Biso   1.000  H
  C342     1.0000 0.69270  0.32150  0.67700  Biso   1.000  C
  C343     1.0000 0.70190  0.27500  0.65990  Biso   1.000  C
  H125     1.0000 0.73060  0.27210  0.64530  Biso   1.000  H
  C344     1.0000 0.66650  0.23200  0.66500  Biso   1.000  C
  H126     1.0000 0.67200  0.20050  0.65300  Biso   1.000  H
  C345     1.0000 0.72830  0.36900  0.66970  Biso   1.000  C
  C346     1.0000 0.56250  0.29030  0.72120  Biso   1.000  C
  C347     1.0000 0.21700  0.07750  0.65390  Biso   1.000  C
  C348     1.0000 0.17970  0.12350  0.65920  Biso   1.000  C
  C349     1.0000 0.18440  0.16980  0.64030  Biso   1.000  C
  H127     1.0000 0.20980  0.17160  0.62330  Biso   1.000  H
  C350     1.0000 0.15320  0.21330  0.64560  Biso   1.000  C
  C351     1.0000 0.11300  0.21170  0.66840  Biso   1.000  C
  C352     1.0000 0.10930  0.16570  0.68960  Biso   1.000  C
  C353     1.0000 0.14310  0.12290  0.68330  Biso   1.000  C
  H128     1.0000 0.14000  0.09190  0.69690  Biso   1.000  H
  C354     1.0000 0.15150  0.25880  0.61400  Biso   1.000  C
  C355     1.0000 0.07250  0.25730  0.67050  Biso   1.000  C
  C356     1.0000 0.08490  0.29600  0.69930  Biso   1.000  C
  C357     1.0000 0.04440  0.33500  0.69910  Biso   1.000  C
  H129     1.0000 0.05560  0.36140  0.71870  Biso   1.000  H
  C358     1.0000 0.98660  0.33610  0.66990  Biso   1.000  C
  C359     1.0000 0.97240  0.29870  0.64010  Biso   1.000  C
  H130     1.0000 0.93460  0.30020  0.61930  Biso   1.000  H
  C360     1.0000 0.01430  0.25790  0.64030  Biso   1.000  C
  H131     1.0000 0.00350  0.23150  0.62060  Biso   1.000  H
  C361     1.0000 0.94020  0.37800  0.66890  Biso   1.000  C
  C362     1.0000 0.14680  0.29870  0.72680  Biso   1.000  C
  C363     1.0000 0.34930  0.98100  0.76550  Biso   1.000  C
  C364     1.0000 0.35640  0.98610  0.81050  Biso   1.000  C
  C365     1.0000 0.41440  0.98290  0.84010  Biso   1.000  C
  H132     1.0000 0.45020  0.97790  0.83230  Biso   1.000  H
  C366     1.0000 0.41800  0.98720  0.88080  Biso   1.000  C
  C367     1.0000 0.36610  0.99350  0.89410  Biso   1.000  C
  C368     1.0000 0.30870  0.00150  0.86420  Biso   1.000  C
  H133     1.0000 0.27400  0.01020  0.87220  Biso   1.000  H
  C369     1.0000 0.30330  0.99660  0.82180  Biso   1.000  C
  H134     1.0000 0.26490  0.00030  0.80190  Biso   1.000  H
  C370     1.0000 0.47820  0.98870  0.91110  Biso   1.000  C
  C371     1.0000 0.36330  0.99590  0.93760  Biso   1.000  C
  C372     1.0000 0.36470  0.04420  0.95670  Biso   1.000  C
  C373     1.0000 0.35790  0.04560  0.99600  Biso   1.000  C
  H135     1.0000 0.36210  0.07730  0.00980  Biso   1.000  H
  C374     1.0000 0.34510  0.00150  0.01500  Biso   1.000  C
  C375     1.0000 0.34410  0.95460  0.99540  Biso   1.000  C
  H136     1.0000 0.33600  0.92400  0.00760  Biso   1.000  H
  C376     1.0000 0.35540  0.95280  0.95640  Biso   1.000  C
  C377     1.0000 0.33320  0.00510  0.05530  Biso   1.000  C
  C378     1.0000 0.36350  0.09630  0.93740  Biso   1.000  C
  C379     1.0000 0.32540  0.82940  0.56080  Biso   1.000  C
  H137     1.0000 0.36660  0.83950  0.57250  Biso   1.000  H
  C380     1.0000 0.31230  0.78970  0.53110  Biso   1.000  C
  H138     1.0000 0.34450  0.77600  0.52240  Biso   1.000  H
  C381     1.0000 0.25660  0.77140  0.51550  Biso   1.000  C
  C382     1.0000 0.21480  0.79580  0.52870  Biso   1.000  C
  H139     1.0000 0.17330  0.78840  0.51510  Biso   1.000  H
  C383     1.0000 0.22670  0.83120  0.56070  Biso   1.000  C
  H140     1.0000 0.19650  0.83940  0.57330  Biso   1.000  H
  F175     1.0000 0.18880  0.27260  0.73640  Biso   1.000  F
  F176     1.0000 0.48720  0.97850  0.94540  Biso   1.000  F
  F177     1.0000 0.35000  0.85800  0.96460  Biso   1.000  F
  F178     1.0000 0.27480  0.90880  0.90460  Biso   1.000  F
  F179     1.0000 0.38140  0.88580  0.92190  Biso   1.000  F
  C384     1.0000 0.33440  0.90700  0.94000  Biso   1.000  C
  F180     1.0000 0.06790  0.11820  0.73200  Biso   1.000  F
  F181     1.0000 0.07400  0.19440  0.74490  Biso   1.000  F
  F182     1.0000 0.00250  0.14830  0.68840  Biso   1.000  F
  C385     1.0000 0.06360  0.16810  0.71240  Biso   1.000  C
  Zn29     1.0000 0.90536  0.47129  0.69975  Biso   1.000  Zn
  Zn30     1.0000 0.81870  0.53676  0.62655  Biso   1.000  Zn
  Zn31     1.0000 0.75955  0.47377  0.68220  Biso   1.000  Zn
  Zn32     1.0000 0.80672  0.41364  0.61722  Biso   1.000  Zn
  F183     1.0000 0.15950  0.60240  0.76994  Biso   1.000  F
  F184     1.0000 0.20280  0.63430  0.72760  Biso   1.000  F
  F185     1.0000 0.17290  0.68510  0.76660  Biso   1.000  F
  F186     1.0000 0.07340  0.83700  0.74730  Biso   1.000  F
  F187     1.0000 0.00380  0.79430  0.69270  Biso   1.000  F
  F188     1.0000 0.06910  0.75300  0.75490  Biso   1.000  F
  F189     1.0000 0.59840  0.75960  0.57890  Biso   1.000  F
  F190     1.0000 0.66360  0.80540  0.63930  Biso   1.000  F
  F191     1.0000 0.70030  0.75640  0.59780  Biso   1.000  F
  F192     1.0000 0.66100  0.84100  0.75170  Biso   1.000  F
  F193     1.0000 0.64940  0.76250  0.75910  Biso   1.000  F
  F194     1.0000 0.69690  0.80710  0.70610  Biso   1.000  F
  F195     1.0000 0.02630  0.49490  0.89710  Biso   1.000  F
  F196     1.0000 0.99340  0.53070  0.93810  Biso   1.000  F
  F197     1.0000 0.99590  0.43780  0.92200  Biso   1.000  F
  F198     1.0000 0.87210  0.64270  0.96170  Biso   1.000  F
  F199     1.0000 0.80640  0.61040  0.90490  Biso   1.000  F
  F200     1.0000 0.91320  0.60430  0.92030  Biso   1.000  F
  O92      1.0000 0.95770  0.53208  0.69759  Biso   1.000  O
  O93      1.0000 0.89110  0.58115  0.65002  Biso   1.000  O
  O94      1.0000 0.20940  0.91270  0.68250  Biso   1.000  O
  O95      1.0000 0.26640  0.86551  0.65236  Biso   1.000  O
  O96      1.0000 0.75230  0.58300  0.63172  Biso   1.000  O
  O97      1.0000 0.70660  0.53630  0.67004  Biso   1.000  O
  O98      1.0000 0.45660  0.91173  0.69690  Biso   1.000  O
  O99      1.0000 0.39130  0.87650  0.64020  Biso   1.000  O
  O100     1.0000 0.79550  0.48390  0.74179  Biso   1.000  O
  O101     1.0000 0.89780  0.47343  0.75557  Biso   1.000  O
  O102     1.0000 0.81710  0.46330  0.06988  Biso   1.000  O
  O103     1.0000 0.83840  0.54770  0.07287  Biso   1.000  O
  O104     1.0000 0.82586  0.47416  0.65778  Biso   1.000  O
  N8       1.0000 0.78220  0.35320  0.57290  Biso   1.000  N
  C386     1.0000 0.94300  0.57090  0.67520  Biso   1.000  C
  C387     1.0000 0.99310  0.61110  0.67900  Biso   1.000  C
  C388     1.0000 0.04910  0.60870  0.70880  Biso   1.000  C
  H141     1.0000 0.05760  0.58070  0.72710  Biso   1.000  H
  C389     1.0000 0.09380  0.64750  0.71230  Biso   1.000  C
  C390     1.0000 0.08280  0.68970  0.68600  Biso   1.000  C
  C391     1.0000 0.02490  0.69060  0.65440  Biso   1.000  C
  H142     1.0000 0.01650  0.71800  0.63560  Biso   1.000  H
  C392     1.0000 0.98090  0.65210  0.65060  Biso   1.000  C
  H143     1.0000 0.94350  0.65340  0.62940  Biso   1.000  H
  C393     1.0000 0.15480  0.64310  0.74350  Biso   1.000  C
  C394     1.0000 0.12470  0.73390  0.68650  Biso   1.000  C
  C395     1.0000 0.11760  0.78020  0.70570  Biso   1.000  C
  C396     1.0000 0.15350  0.82330  0.69940  Biso   1.000  C
  H144     1.0000 0.14930  0.85480  0.71190  Biso   1.000  H
  C397     1.0000 0.19270  0.82150  0.67700  Biso   1.000  C
  C398     1.0000 0.20190  0.77500  0.65990  Biso   1.000  C
  H145     1.0000 0.23060  0.77210  0.64530  Biso   1.000  H
  C399     1.0000 0.16650  0.73200  0.66500  Biso   1.000  C
  H146     1.0000 0.17200  0.70050  0.65300  Biso   1.000  H
  C400     1.0000 0.22830  0.86900  0.66970  Biso   1.000  C
  C401     1.0000 0.06250  0.79030  0.72120  Biso   1.000  C
  C402     1.0000 0.71700  0.57750  0.65390  Biso   1.000  C
  C403     1.0000 0.67970  0.62350  0.65920  Biso   1.000  C
  C404     1.0000 0.68440  0.66980  0.64030  Biso   1.000  C
  H147     1.0000 0.70980  0.67160  0.62330  Biso   1.000  H
  C405     1.0000 0.65320  0.71330  0.64560  Biso   1.000  C
  C406     1.0000 0.61300  0.71170  0.66840  Biso   1.000  C
  C407     1.0000 0.60930  0.66570  0.68960  Biso   1.000  C
  C408     1.0000 0.64310  0.62290  0.68330  Biso   1.000  C
  H148     1.0000 0.64000  0.59190  0.69690  Biso   1.000  H
  C409     1.0000 0.65150  0.75880  0.61400  Biso   1.000  C
  C410     1.0000 0.57250  0.75730  0.67050  Biso   1.000  C
  C411     1.0000 0.58490  0.79600  0.69930  Biso   1.000  C
  C412     1.0000 0.54440  0.83500  0.69910  Biso   1.000  C
  H149     1.0000 0.55560  0.86140  0.71870  Biso   1.000  H
  C413     1.0000 0.48660  0.83610  0.66990  Biso   1.000  C
  C414     1.0000 0.47240  0.79870  0.64010  Biso   1.000  C
  H150     1.0000 0.43460  0.80020  0.61930  Biso   1.000  H
  C415     1.0000 0.51430  0.75790  0.64030  Biso   1.000  C
  H151     1.0000 0.50350  0.73150  0.62060  Biso   1.000  H
  C416     1.0000 0.44020  0.87800  0.66890  Biso   1.000  C
  C417     1.0000 0.64680  0.79870  0.72680  Biso   1.000  C
  C418     1.0000 0.84930  0.48100  0.76550  Biso   1.000  C
  C419     1.0000 0.85640  0.48610  0.81050  Biso   1.000  C
  C420     1.0000 0.91440  0.48290  0.84010  Biso   1.000  C
  H152     1.0000 0.95020  0.47790  0.83230  Biso   1.000  H
  C421     1.0000 0.91800  0.48720  0.88080  Biso   1.000  C
  C422     1.0000 0.86610  0.49350  0.89410  Biso   1.000  C
  C423     1.0000 0.80870  0.50150  0.86420  Biso   1.000  C
  H153     1.0000 0.77400  0.51020  0.87220  Biso   1.000  H
  C424     1.0000 0.80330  0.49660  0.82180  Biso   1.000  C
  H154     1.0000 0.76490  0.50030  0.80190  Biso   1.000  H
  C425     1.0000 0.97820  0.48870  0.91110  Biso   1.000  C
  C426     1.0000 0.86330  0.49590  0.93760  Biso   1.000  C
  C427     1.0000 0.86470  0.54420  0.95670  Biso   1.000  C
  C428     1.0000 0.85790  0.54560  0.99600  Biso   1.000  C
  H155     1.0000 0.86210  0.57730  0.00980  Biso   1.000  H
  C429     1.0000 0.84510  0.50150  0.01500  Biso   1.000  C
  C430     1.0000 0.84410  0.45460  0.99540  Biso   1.000  C
  H156     1.0000 0.83600  0.42400  0.00760  Biso   1.000  H
  C431     1.0000 0.85540  0.45280  0.95640  Biso   1.000  C
  C432     1.0000 0.83320  0.50510  0.05530  Biso   1.000  C
  C433     1.0000 0.86350  0.59630  0.93740  Biso   1.000  C
  C434     1.0000 0.82540  0.32940  0.56080  Biso   1.000  C
  H157     1.0000 0.86660  0.33950  0.57250  Biso   1.000  H
  C435     1.0000 0.81230  0.28970  0.53110  Biso   1.000  C
  H158     1.0000 0.84450  0.27600  0.52240  Biso   1.000  H
  C436     1.0000 0.75660  0.27140  0.51550  Biso   1.000  C
  C437     1.0000 0.71480  0.29580  0.52870  Biso   1.000  C
  H159     1.0000 0.67330  0.28840  0.51510  Biso   1.000  H
  C438     1.0000 0.72670  0.33120  0.56070  Biso   1.000  C
  H160     1.0000 0.69650  0.33940  0.57330  Biso   1.000  H
  F201     1.0000 0.68880  0.77260  0.73640  Biso   1.000  F
  F202     1.0000 0.98720  0.47850  0.94540  Biso   1.000  F
  F203     1.0000 0.85000  0.35800  0.96460  Biso   1.000  F
  F204     1.0000 0.77480  0.40880  0.90460  Biso   1.000  F
  F205     1.0000 0.88140  0.38580  0.92190  Biso   1.000  F
  C439     1.0000 0.83440  0.40700  0.94000  Biso   1.000  C
  F206     1.0000 0.56790  0.61820  0.73200  Biso   1.000  F
  F207     1.0000 0.57400  0.69440  0.74490  Biso   1.000  F
  F208     1.0000 0.50250  0.64830  0.68840  Biso   1.000  F
  C440     1.0000 0.56360  0.66810  0.71240  Biso   1.000  C
