data_image0
_cell_length_a       20.2686
_cell_length_b       18.9736
_cell_length_c       27.9855
_cell_angle_alpha    90
_cell_angle_beta     107.632
_cell_angle_gamma    90

_symmetry_space_group_name_H-M    "P 1"
_symmetry_int_tables_number       1

loop_
  _symmetry_equiv_pos_as_xyz
  'x, y, z'

loop_
  _atom_site_label
  _atom_site_occupancy
  _atom_site_fract_x
  _atom_site_fract_y
  _atom_site_fract_z
  _atom_site_thermal_displace_type
  _atom_site_B_iso_or_equiv
  _atom_site_type_symbol
  La1      1.0000 0.49073  0.01748  0.41637  Biso   1.000  La
  La2      1.0000 0.45820  0.43146  0.44030  Biso   1.000  La
  O1       1.0000 0.40290  0.92420  0.36880  Biso   1.000  O
  O2       1.0000 0.48710  0.88540  0.43360  Biso   1.000  O
  O3       1.0000 0.55700  0.11200  0.38430  Biso   1.000  O
  O4       1.0000 0.07680  0.70310  0.11690  Biso   1.000  O
  O5       1.0000 0.10140  0.59080  0.13390  Biso   1.000  O
  O6       1.0000 0.41890  0.55500  0.42410  Biso   1.000  O
  O7       1.0000 0.48510  0.62980  0.48020  Biso   1.000  O
  O8       1.0000 0.43680  0.49910  0.52620  Biso   1.000  O
  O9       1.0000 0.46640  0.53270  0.85160  Biso   1.000  O
  O10      1.0000 0.36560  0.57300  0.85520  Biso   1.000  O
  O11      1.0000 0.08060  0.49810  0.52990  Biso   1.000  O
  O12      1.0000 0.11500  0.50380  0.46050  Biso   1.000  O
  O13      1.0000 0.35330  0.44520  0.46850  Biso   1.000  O
  C1       1.0000 0.43230  0.87450  0.39660  Biso   1.000  C
  C2       1.0000 0.40530  0.80070  0.38510  Biso   1.000  C
  C3       1.0000 0.43360  0.74530  0.41740  Biso   1.000  C
  H1       1.0000 0.46900  0.75440  0.44790  Biso   1.000  H
  C4       1.0000 0.41050  0.67700  0.40540  Biso   1.000  C
  C5       1.0000 0.44270  0.61460  0.44010  Biso   1.000  C
  C6       1.0000 0.35870  0.66380  0.35980  Biso   1.000  C
  H2       1.0000 0.34380  0.61680  0.35110  Biso   1.000  H
  C7       1.0000 0.32860  0.71900  0.32700  Biso   1.000  C
  C8       1.0000 0.35280  0.78830  0.34060  Biso   1.000  C
  H3       1.0000 0.33300  0.82670  0.31920  Biso   1.000  H
  C9       1.0000 0.27440  0.70470  0.27880  Biso   1.000  C
  C10      1.0000 0.26880  0.63860  0.25720  Biso   1.000  C
  H4       1.0000 0.30130  0.60300  0.27250  Biso   1.000  H
  C11      1.0000 0.21670  0.62380  0.21350  Biso   1.000  C
  H5       1.0000 0.21380  0.57820  0.19910  Biso   1.000  H
  C12      1.0000 0.17540  0.74150  0.21110  Biso   1.000  C
  H6       1.0000 0.14420  0.77770  0.19500  Biso   1.000  H
  C13      1.0000 0.22730  0.75590  0.25490  Biso   1.000  C
  H7       1.0000 0.23080  0.80180  0.26900  Biso   1.000  H
  C14      1.0000 0.16880  0.67460  0.19060  Biso   1.000  C
  C15      1.0000 0.11130  0.65580  0.14290  Biso   1.000  C
  C16      1.0000 0.37300  0.47870  0.50840  Biso   1.000  C
  C17      1.0000 0.32340  0.49300  0.53680  Biso   1.000  C
  C18      1.0000 0.25220  0.49050  0.51170  Biso   1.000  C
  H8       1.0000 0.23680  0.48190  0.47660  Biso   1.000  H
  C19      1.0000 0.20420  0.50020  0.53680  Biso   1.000  C
  C20      1.0000 0.12840  0.49940  0.50680  Biso   1.000  C
  C21      1.0000 0.22740  0.50990  0.58930  Biso   1.000  C
  H9       1.0000 0.19450  0.51460  0.60710  Biso   1.000  H
  C22      1.0000 0.29760  0.51280  0.61520  Biso   1.000  C
  C23      1.0000 0.34490  0.50560  0.58790  Biso   1.000  C
  H10      1.0000 0.39310  0.50960  0.60500  Biso   1.000  H
  C24      1.0000 0.32340  0.52100  0.67110  Biso   1.000  C
  C25      1.0000 0.37490  0.53730  0.77560  Biso   1.000  C
  C26      1.0000 0.40430  0.54960  0.83110  Biso   1.000  C
  C27      1.0000 0.28080  0.55000  0.69660  Biso   1.000  C
  H11      1.0000 0.23500  0.56480  0.67940  Biso   1.000  H
  C28      1.0000 0.30790  0.55700  0.74820  Biso   1.000  C
  H12      1.0000 0.27880  0.57560  0.76600  Biso   1.000  H
  C29      1.0000 0.41130  0.49930  0.74930  Biso   1.000  C
  H13      1.0000 0.45500  0.47970  0.76700  Biso   1.000  H
  C30      1.0000 0.38560  0.48940  0.69780  Biso   1.000  C
  H14      1.0000 0.41020  0.46120  0.68100  Biso   1.000  H
  O14      1.0000 0.53540  0.96700  0.35060  Biso   1.000  O
  N1       1.0000 0.58340  0.96200  0.28660  Biso   1.000  N
  C31      1.0000 0.56630  0.93680  0.32270  Biso   1.000  C
  C32      1.0000 0.61730  0.92320  0.25340  Biso   1.000  C
  H15      1.0000 0.61940  0.87280  0.26140  Biso   1.000  H
  H16      1.0000 0.66430  0.94140  0.25900  Biso   1.000  H
  H17      1.0000 0.59020  0.93020  0.21830  Biso   1.000  H
  C33      1.0000 0.58850  0.04060  0.28120  Biso   1.000  C
  H18      1.0000 0.57050  0.06430  0.30570  Biso   1.000  H
  H19      1.0000 0.56130  0.05470  0.24720  Biso   1.000  H
  H20      1.0000 0.63700  0.05380  0.28700  Biso   1.000  H
  C34      1.0000 0.57500  0.85460  0.33110  Biso   1.000  C
  H21      1.0000 0.55980  0.84130  0.36010  Biso   1.000  H
  H22      1.0000 0.62310  0.84140  0.33720  Biso   1.000  H
  H23      1.0000 0.54580  0.83010  0.30120  Biso   1.000  H
  O15      1.0000 0.54300  0.11600  0.37310  Biso   1.000  O
  C35      1.0000 0.23700  0.64200  0.27300  Biso   1.000  C
  H24      1.0000 0.24550  0.60870  0.29940  Biso   1.000  H
  C36      1.0000 0.18800  0.63100  0.22700  Biso   1.000  C
  H25      1.0000 0.16660  0.58570  0.22210  Biso   1.000  H
  C37      1.0000 0.19900  0.73100  0.19400  Biso   1.000  C
  H26      1.0000 0.18820  0.76270  0.16650  Biso   1.000  H
  C38      1.0000 0.25100  0.75100  0.24100  Biso   1.000  C
  H27      1.0000 0.26810  0.79770  0.24550  Biso   1.000  H
  C39      1.0000 0.28500  0.54600  0.70200  Biso   1.000  C
  H28      1.0000 0.23860  0.55940  0.68450  Biso   1.000  H
  C40      1.0000 0.30300  0.55400  0.75100  Biso   1.000  C
  H29      1.0000 0.27170  0.56900  0.76890  Biso   1.000  H
  C41      1.0000 0.41800  0.54900  0.75060  Biso   1.000  C
  H30      1.0000 0.46460  0.56290  0.76630  Biso   1.000  H
  C42      1.0000 0.39000  0.54100  0.69660  Biso   1.000  C
  H31      1.0000 0.42010  0.54980  0.67730  Biso   1.000  H
  O16      1.0000 0.53180  0.82190  0.32520  Biso   1.000  O
  C43      1.0000 0.55990  0.78300  0.29930  Biso   1.000  C
  N2       1.0000 0.52440  0.73150  0.27640  Biso   1.000  N
  C44      1.0000 0.47800  0.69000  0.29980  Biso   1.000  C
  H32      1.0000 0.46730  0.71780  0.32550  Biso   1.000  H
  H33      1.0000 0.43560  0.68050  0.27340  Biso   1.000  H
  H34      1.0000 0.49980  0.64590  0.31370  Biso   1.000  H
  C45      1.0000 0.55770  0.68300  0.24770  Biso   1.000  C
  H35      1.0000 0.58930  0.71360  0.23670  Biso   1.000  H
  H36      1.0000 0.58080  0.63930  0.26030  Biso   1.000  H
  H37      1.0000 0.51670  0.67380  0.22000  Biso   1.000  H
  C46      1.0000 0.61380  0.81900  0.27670  Biso   1.000  C
  H38      1.0000 0.62540  0.86300  0.29500  Biso   1.000  H
  H39      1.0000 0.65580  0.79130  0.28070  Biso   1.000  H
  H40      1.0000 0.59240  0.82920  0.24170  Biso   1.000  H
  O17      1.0000 0.63400  0.02900  0.33160  Biso   1.000  O
  La3      1.0000 0.99073  0.51748  0.41637  Biso   1.000  La
  La4      1.0000 0.95820  0.93146  0.44030  Biso   1.000  La
  O18      1.0000 0.90290  0.42420  0.36880  Biso   1.000  O
  O19      1.0000 0.98710  0.38540  0.43360  Biso   1.000  O
  O20      1.0000 0.05700  0.61200  0.38430  Biso   1.000  O
  O21      1.0000 0.57680  0.20310  0.11690  Biso   1.000  O
  O22      1.0000 0.60140  0.09080  0.13390  Biso   1.000  O
  O23      1.0000 0.91890  0.05500  0.42410  Biso   1.000  O
  O24      1.0000 0.98510  0.12980  0.48020  Biso   1.000  O
  O25      1.0000 0.93680  0.99910  0.52620  Biso   1.000  O
  O26      1.0000 0.96640  0.03270  0.85160  Biso   1.000  O
  O27      1.0000 0.86560  0.07300  0.85520  Biso   1.000  O
  O28      1.0000 0.58060  0.99810  0.52990  Biso   1.000  O
  O29      1.0000 0.61500  0.00380  0.46050  Biso   1.000  O
  O30      1.0000 0.85330  0.94520  0.46850  Biso   1.000  O
  C47      1.0000 0.93230  0.37450  0.39660  Biso   1.000  C
  C48      1.0000 0.90530  0.30070  0.38510  Biso   1.000  C
  C49      1.0000 0.93360  0.24530  0.41740  Biso   1.000  C
  H41      1.0000 0.96900  0.25440  0.44790  Biso   1.000  H
  C50      1.0000 0.91050  0.17700  0.40540  Biso   1.000  C
  C51      1.0000 0.94270  0.11460  0.44010  Biso   1.000  C
  C52      1.0000 0.85870  0.16380  0.35980  Biso   1.000  C
  H42      1.0000 0.84380  0.11680  0.35110  Biso   1.000  H
  C53      1.0000 0.82860  0.21900  0.32700  Biso   1.000  C
  C54      1.0000 0.85280  0.28830  0.34060  Biso   1.000  C
  H43      1.0000 0.83300  0.32670  0.31920  Biso   1.000  H
  C55      1.0000 0.77440  0.20470  0.27880  Biso   1.000  C
  C56      1.0000 0.76880  0.13860  0.25720  Biso   1.000  C
  H44      1.0000 0.80130  0.10300  0.27250  Biso   1.000  H
  C57      1.0000 0.71670  0.12380  0.21350  Biso   1.000  C
  H45      1.0000 0.71380  0.07820  0.19910  Biso   1.000  H
  C58      1.0000 0.67540  0.24150  0.21110  Biso   1.000  C
  H46      1.0000 0.64420  0.27770  0.19500  Biso   1.000  H
  C59      1.0000 0.72730  0.25590  0.25490  Biso   1.000  C
  H47      1.0000 0.73080  0.30180  0.26900  Biso   1.000  H
  C60      1.0000 0.66880  0.17460  0.19060  Biso   1.000  C
  C61      1.0000 0.61130  0.15580  0.14290  Biso   1.000  C
  C62      1.0000 0.87300  0.97870  0.50840  Biso   1.000  C
  C63      1.0000 0.82340  0.99300  0.53680  Biso   1.000  C
  C64      1.0000 0.75220  0.99050  0.51170  Biso   1.000  C
  H48      1.0000 0.73680  0.98190  0.47660  Biso   1.000  H
  C65      1.0000 0.70420  0.00020  0.53680  Biso   1.000  C
  C66      1.0000 0.62840  0.99940  0.50680  Biso   1.000  C
  C67      1.0000 0.72740  0.00990  0.58930  Biso   1.000  C
  H49      1.0000 0.69450  0.01460  0.60710  Biso   1.000  H
  C68      1.0000 0.79760  0.01280  0.61520  Biso   1.000  C
  C69      1.0000 0.84490  0.00560  0.58790  Biso   1.000  C
  H50      1.0000 0.89310  0.00960  0.60500  Biso   1.000  H
  C70      1.0000 0.82340  0.02100  0.67110  Biso   1.000  C
  C71      1.0000 0.87490  0.03730  0.77560  Biso   1.000  C
  C72      1.0000 0.90430  0.04960  0.83110  Biso   1.000  C
  C73      1.0000 0.78080  0.05000  0.69660  Biso   1.000  C
  H51      1.0000 0.73500  0.06480  0.67940  Biso   1.000  H
  C74      1.0000 0.80790  0.05700  0.74820  Biso   1.000  C
  H52      1.0000 0.77880  0.07560  0.76600  Biso   1.000  H
  C75      1.0000 0.91130  0.99930  0.74930  Biso   1.000  C
  H53      1.0000 0.95500  0.97970  0.76700  Biso   1.000  H
  C76      1.0000 0.88560  0.98940  0.69780  Biso   1.000  C
  H54      1.0000 0.91020  0.96120  0.68100  Biso   1.000  H
  O31      1.0000 0.03540  0.46700  0.35060  Biso   1.000  O
  N3       1.0000 0.08340  0.46200  0.28660  Biso   1.000  N
  C77      1.0000 0.06630  0.43680  0.32270  Biso   1.000  C
  C78      1.0000 0.11730  0.42320  0.25340  Biso   1.000  C
  H55      1.0000 0.11940  0.37280  0.26140  Biso   1.000  H
  H56      1.0000 0.16430  0.44140  0.25900  Biso   1.000  H
  H57      1.0000 0.09020  0.43020  0.21830  Biso   1.000  H
  C79      1.0000 0.08850  0.54060  0.28120  Biso   1.000  C
  H58      1.0000 0.07050  0.56430  0.30570  Biso   1.000  H
  H59      1.0000 0.06130  0.55470  0.24720  Biso   1.000  H
  H60      1.0000 0.13700  0.55380  0.28700  Biso   1.000  H
  C80      1.0000 0.07500  0.35460  0.33110  Biso   1.000  C
  H61      1.0000 0.05980  0.34130  0.36010  Biso   1.000  H
  H62      1.0000 0.12310  0.34140  0.33720  Biso   1.000  H
  H63      1.0000 0.04580  0.33010  0.30120  Biso   1.000  H
  O32      1.0000 0.04300  0.61600  0.37310  Biso   1.000  O
  C81      1.0000 0.73700  0.14200  0.27300  Biso   1.000  C
  H64      1.0000 0.74550  0.10870  0.29940  Biso   1.000  H
  C82      1.0000 0.68800  0.13100  0.22700  Biso   1.000  C
  H65      1.0000 0.66660  0.08570  0.22210  Biso   1.000  H
  C83      1.0000 0.69900  0.23100  0.19400  Biso   1.000  C
  H66      1.0000 0.68820  0.26270  0.16650  Biso   1.000  H
  C84      1.0000 0.75100  0.25100  0.24100  Biso   1.000  C
  H67      1.0000 0.76810  0.29770  0.24550  Biso   1.000  H
  C85      1.0000 0.78500  0.04600  0.70200  Biso   1.000  C
  H68      1.0000 0.73860  0.05940  0.68450  Biso   1.000  H
  C86      1.0000 0.80300  0.05400  0.75100  Biso   1.000  C
  H69      1.0000 0.77170  0.06900  0.76890  Biso   1.000  H
  C87      1.0000 0.91800  0.04900  0.75060  Biso   1.000  C
  H70      1.0000 0.96460  0.06290  0.76630  Biso   1.000  H
  C88      1.0000 0.89000  0.04100  0.69660  Biso   1.000  C
  H71      1.0000 0.92010  0.04980  0.67730  Biso   1.000  H
  O33      1.0000 0.03180  0.32190  0.32520  Biso   1.000  O
  C89      1.0000 0.05990  0.28300  0.29930  Biso   1.000  C
  N4       1.0000 0.02440  0.23150  0.27640  Biso   1.000  N
  C90      1.0000 0.97800  0.19000  0.29980  Biso   1.000  C
  H72      1.0000 0.96730  0.21780  0.32550  Biso   1.000  H
  H73      1.0000 0.93560  0.18050  0.27340  Biso   1.000  H
  H74      1.0000 0.99980  0.14590  0.31370  Biso   1.000  H
  C91      1.0000 0.05770  0.18300  0.24770  Biso   1.000  C
  H75      1.0000 0.08930  0.21360  0.23670  Biso   1.000  H
  H76      1.0000 0.08080  0.13930  0.26030  Biso   1.000  H
  H77      1.0000 0.01670  0.17380  0.22000  Biso   1.000  H
  C92      1.0000 0.11380  0.31900  0.27670  Biso   1.000  C
  H78      1.0000 0.12540  0.36300  0.29500  Biso   1.000  H
  H79      1.0000 0.15580  0.29130  0.28070  Biso   1.000  H
  H80      1.0000 0.09240  0.32920  0.24170  Biso   1.000  H
  O34      1.0000 0.13400  0.52900  0.33160  Biso   1.000  O
  La5      1.0000 0.50927  0.01748  0.08363  Biso   1.000  La
  La6      1.0000 0.54180  0.43146  0.05970  Biso   1.000  La
  O35      1.0000 0.59710  0.92420  0.13120  Biso   1.000  O
  O36      1.0000 0.51290  0.88540  0.06640  Biso   1.000  O
  O37      1.0000 0.44300  0.11200  0.11570  Biso   1.000  O
  O38      1.0000 0.92320  0.70310  0.38310  Biso   1.000  O
  O39      1.0000 0.89860  0.59080  0.36610  Biso   1.000  O
  O40      1.0000 0.58110  0.55500  0.07590  Biso   1.000  O
  O41      1.0000 0.51490  0.62980  0.01980  Biso   1.000  O
  O42      1.0000 0.56320  0.49910  0.97380  Biso   1.000  O
  O43      1.0000 0.53360  0.53270  0.64840  Biso   1.000  O
  O44      1.0000 0.63440  0.57300  0.64480  Biso   1.000  O
  O45      1.0000 0.91940  0.49810  0.97010  Biso   1.000  O
  O46      1.0000 0.88500  0.50380  0.03950  Biso   1.000  O
  O47      1.0000 0.64670  0.44520  0.03150  Biso   1.000  O
  C93      1.0000 0.56770  0.87450  0.10340  Biso   1.000  C
  C94      1.0000 0.59470  0.80070  0.11490  Biso   1.000  C
  C95      1.0000 0.56640  0.74530  0.08260  Biso   1.000  C
  H81      1.0000 0.53100  0.75440  0.05210  Biso   1.000  H
  C96      1.0000 0.58950  0.67700  0.09460  Biso   1.000  C
  C97      1.0000 0.55730  0.61460  0.05990  Biso   1.000  C
  C98      1.0000 0.64130  0.66380  0.14020  Biso   1.000  C
  H82      1.0000 0.65620  0.61680  0.14890  Biso   1.000  H
  C99      1.0000 0.67140  0.71900  0.17300  Biso   1.000  C
  C100     1.0000 0.64720  0.78830  0.15940  Biso   1.000  C
  H83      1.0000 0.66700  0.82670  0.18080  Biso   1.000  H
  C101     1.0000 0.72560  0.70470  0.22120  Biso   1.000  C
  C102     1.0000 0.73120  0.63860  0.24280  Biso   1.000  C
  H84      1.0000 0.69870  0.60300  0.22750  Biso   1.000  H
  C103     1.0000 0.78330  0.62380  0.28650  Biso   1.000  C
  H85      1.0000 0.78620  0.57820  0.30090  Biso   1.000  H
  C104     1.0000 0.82460  0.74150  0.28890  Biso   1.000  C
  H86      1.0000 0.85580  0.77770  0.30500  Biso   1.000  H
  C105     1.0000 0.77270  0.75590  0.24510  Biso   1.000  C
  H87      1.0000 0.76920  0.80180  0.23100  Biso   1.000  H
  C106     1.0000 0.83120  0.67460  0.30940  Biso   1.000  C
  C107     1.0000 0.88870  0.65580  0.35710  Biso   1.000  C
  C108     1.0000 0.62700  0.47870  0.99160  Biso   1.000  C
  C109     1.0000 0.67660  0.49300  0.96320  Biso   1.000  C
  C110     1.0000 0.74780  0.49050  0.98830  Biso   1.000  C
  H88      1.0000 0.76320  0.48190  0.02340  Biso   1.000  H
  C111     1.0000 0.79580  0.50020  0.96320  Biso   1.000  C
  C112     1.0000 0.87160  0.49940  0.99320  Biso   1.000  C
  C113     1.0000 0.77260  0.50990  0.91070  Biso   1.000  C
  H89      1.0000 0.80550  0.51460  0.89290  Biso   1.000  H
  C114     1.0000 0.70240  0.51280  0.88480  Biso   1.000  C
  C115     1.0000 0.65510  0.50560  0.91210  Biso   1.000  C
  H90      1.0000 0.60690  0.50960  0.89500  Biso   1.000  H
  C116     1.0000 0.67660  0.52100  0.82890  Biso   1.000  C
  C117     1.0000 0.62510  0.53730  0.72440  Biso   1.000  C
  C118     1.0000 0.59570  0.54960  0.66890  Biso   1.000  C
  C119     1.0000 0.71920  0.55000  0.80340  Biso   1.000  C
  H91      1.0000 0.76500  0.56480  0.82060  Biso   1.000  H
  C120     1.0000 0.69210  0.55700  0.75180  Biso   1.000  C
  H92      1.0000 0.72120  0.57560  0.73400  Biso   1.000  H
  C121     1.0000 0.58870  0.49930  0.75070  Biso   1.000  C
  H93      1.0000 0.54500  0.47970  0.73300  Biso   1.000  H
  C122     1.0000 0.61440  0.48940  0.80220  Biso   1.000  C
  H94      1.0000 0.58980  0.46120  0.81900  Biso   1.000  H
  O48      1.0000 0.46460  0.96700  0.14940  Biso   1.000  O
  N5       1.0000 0.41660  0.96200  0.21340  Biso   1.000  N
  C123     1.0000 0.43370  0.93680  0.17730  Biso   1.000  C
  C124     1.0000 0.38270  0.92320  0.24660  Biso   1.000  C
  H95      1.0000 0.38060  0.87280  0.23860  Biso   1.000  H
  H96      1.0000 0.33570  0.94140  0.24100  Biso   1.000  H
  H97      1.0000 0.40980  0.93020  0.28170  Biso   1.000  H
  C125     1.0000 0.41150  0.04060  0.21880  Biso   1.000  C
  H98      1.0000 0.42950  0.06430  0.19430  Biso   1.000  H
  H99      1.0000 0.43870  0.05470  0.25280  Biso   1.000  H
  H100     1.0000 0.36300  0.05380  0.21300  Biso   1.000  H
  C126     1.0000 0.42500  0.85460  0.16890  Biso   1.000  C
  H101     1.0000 0.44020  0.84130  0.13990  Biso   1.000  H
  H102     1.0000 0.37690  0.84140  0.16280  Biso   1.000  H
  H103     1.0000 0.45420  0.83010  0.19880  Biso   1.000  H
  O49      1.0000 0.45700  0.11600  0.12690  Biso   1.000  O
  C127     1.0000 0.76300  0.64200  0.22700  Biso   1.000  C
  H104     1.0000 0.75450  0.60870  0.20060  Biso   1.000  H
  C128     1.0000 0.81200  0.63100  0.27300  Biso   1.000  C
  H105     1.0000 0.83340  0.58570  0.27790  Biso   1.000  H
  C129     1.0000 0.80100  0.73100  0.30600  Biso   1.000  C
  H106     1.0000 0.81180  0.76270  0.33350  Biso   1.000  H
  C130     1.0000 0.74900  0.75100  0.25900  Biso   1.000  C
  H107     1.0000 0.73190  0.79770  0.25450  Biso   1.000  H
  C131     1.0000 0.71500  0.54600  0.79800  Biso   1.000  C
  H108     1.0000 0.76140  0.55940  0.81550  Biso   1.000  H
  C132     1.0000 0.69700  0.55400  0.74900  Biso   1.000  C
  H109     1.0000 0.72830  0.56900  0.73110  Biso   1.000  H
  C133     1.0000 0.58200  0.54900  0.74940  Biso   1.000  C
  H110     1.0000 0.53540  0.56290  0.73370  Biso   1.000  H
  C134     1.0000 0.61000  0.54100  0.80340  Biso   1.000  C
  H111     1.0000 0.57990  0.54980  0.82270  Biso   1.000  H
  O50      1.0000 0.46820  0.82190  0.17480  Biso   1.000  O
  C135     1.0000 0.44010  0.78300  0.20070  Biso   1.000  C
  N6       1.0000 0.47560  0.73150  0.22360  Biso   1.000  N
  C136     1.0000 0.52200  0.69000  0.20020  Biso   1.000  C
  H112     1.0000 0.53270  0.71780  0.17450  Biso   1.000  H
  H113     1.0000 0.56440  0.68050  0.22660  Biso   1.000  H
  H114     1.0000 0.50020  0.64590  0.18630  Biso   1.000  H
  C137     1.0000 0.44230  0.68300  0.25230  Biso   1.000  C
  H115     1.0000 0.41070  0.71360  0.26330  Biso   1.000  H
  H116     1.0000 0.41920  0.63930  0.23970  Biso   1.000  H
  H117     1.0000 0.48330  0.67380  0.28000  Biso   1.000  H
  C138     1.0000 0.38620  0.81900  0.22330  Biso   1.000  C
  H118     1.0000 0.37460  0.86300  0.20500  Biso   1.000  H
  H119     1.0000 0.34420  0.79130  0.21930  Biso   1.000  H
  H120     1.0000 0.40760  0.82920  0.25830  Biso   1.000  H
  O51      1.0000 0.36600  0.02900  0.16840  Biso   1.000  O
  La7      1.0000 0.00927  0.51748  0.08363  Biso   1.000  La
  La8      1.0000 0.04180  0.93146  0.05970  Biso   1.000  La
  O52      1.0000 0.09710  0.42420  0.13120  Biso   1.000  O
  O53      1.0000 0.01290  0.38540  0.06640  Biso   1.000  O
  O54      1.0000 0.94300  0.61200  0.11570  Biso   1.000  O
  O55      1.0000 0.42320  0.20310  0.38310  Biso   1.000  O
  O56      1.0000 0.39860  0.09080  0.36610  Biso   1.000  O
  O57      1.0000 0.08110  0.05500  0.07590  Biso   1.000  O
  O58      1.0000 0.01490  0.12980  0.01980  Biso   1.000  O
  O59      1.0000 0.06320  0.99910  0.97380  Biso   1.000  O
  O60      1.0000 0.03360  0.03270  0.64840  Biso   1.000  O
  O61      1.0000 0.13440  0.07300  0.64480  Biso   1.000  O
  O62      1.0000 0.41940  0.99810  0.97010  Biso   1.000  O
  O63      1.0000 0.38500  0.00380  0.03950  Biso   1.000  O
  O64      1.0000 0.14670  0.94520  0.03150  Biso   1.000  O
  C139     1.0000 0.06770  0.37450  0.10340  Biso   1.000  C
  C140     1.0000 0.09470  0.30070  0.11490  Biso   1.000  C
  C141     1.0000 0.06640  0.24530  0.08260  Biso   1.000  C
  H121     1.0000 0.03100  0.25440  0.05210  Biso   1.000  H
  C142     1.0000 0.08950  0.17700  0.09460  Biso   1.000  C
  C143     1.0000 0.05730  0.11460  0.05990  Biso   1.000  C
  C144     1.0000 0.14130  0.16380  0.14020  Biso   1.000  C
  H122     1.0000 0.15620  0.11680  0.14890  Biso   1.000  H
  C145     1.0000 0.17140  0.21900  0.17300  Biso   1.000  C
  C146     1.0000 0.14720  0.28830  0.15940  Biso   1.000  C
  H123     1.0000 0.16700  0.32670  0.18080  Biso   1.000  H
  C147     1.0000 0.22560  0.20470  0.22120  Biso   1.000  C
  C148     1.0000 0.23120  0.13860  0.24280  Biso   1.000  C
  H124     1.0000 0.19870  0.10300  0.22750  Biso   1.000  H
  C149     1.0000 0.28330  0.12380  0.28650  Biso   1.000  C
  H125     1.0000 0.28620  0.07820  0.30090  Biso   1.000  H
  C150     1.0000 0.32460  0.24150  0.28890  Biso   1.000  C
  H126     1.0000 0.35580  0.27770  0.30500  Biso   1.000  H
  C151     1.0000 0.27270  0.25590  0.24510  Biso   1.000  C
  H127     1.0000 0.26920  0.30180  0.23100  Biso   1.000  H
  C152     1.0000 0.33120  0.17460  0.30940  Biso   1.000  C
  C153     1.0000 0.38870  0.15580  0.35710  Biso   1.000  C
  C154     1.0000 0.12700  0.97870  0.99160  Biso   1.000  C
  C155     1.0000 0.17660  0.99300  0.96320  Biso   1.000  C
  C156     1.0000 0.24780  0.99050  0.98830  Biso   1.000  C
  H128     1.0000 0.26320  0.98190  0.02340  Biso   1.000  H
  C157     1.0000 0.29580  0.00020  0.96320  Biso   1.000  C
  C158     1.0000 0.37160  0.99940  0.99320  Biso   1.000  C
  C159     1.0000 0.27260  0.00990  0.91070  Biso   1.000  C
  H129     1.0000 0.30550  0.01460  0.89290  Biso   1.000  H
  C160     1.0000 0.20240  0.01280  0.88480  Biso   1.000  C
  C161     1.0000 0.15510  0.00560  0.91210  Biso   1.000  C
  H130     1.0000 0.10690  0.00960  0.89500  Biso   1.000  H
  C162     1.0000 0.17660  0.02100  0.82890  Biso   1.000  C
  C163     1.0000 0.12510  0.03730  0.72440  Biso   1.000  C
  C164     1.0000 0.09570  0.04960  0.66890  Biso   1.000  C
  C165     1.0000 0.21920  0.05000  0.80340  Biso   1.000  C
  H131     1.0000 0.26500  0.06480  0.82060  Biso   1.000  H
  C166     1.0000 0.19210  0.05700  0.75180  Biso   1.000  C
  H132     1.0000 0.22120  0.07560  0.73400  Biso   1.000  H
  C167     1.0000 0.08870  0.99930  0.75070  Biso   1.000  C
  H133     1.0000 0.04500  0.97970  0.73300  Biso   1.000  H
  C168     1.0000 0.11440  0.98940  0.80220  Biso   1.000  C
  H134     1.0000 0.08980  0.96120  0.81900  Biso   1.000  H
  O65      1.0000 0.96460  0.46700  0.14940  Biso   1.000  O
  N7       1.0000 0.91660  0.46200  0.21340  Biso   1.000  N
  C169     1.0000 0.93370  0.43680  0.17730  Biso   1.000  C
  C170     1.0000 0.88270  0.42320  0.24660  Biso   1.000  C
  H135     1.0000 0.88060  0.37280  0.23860  Biso   1.000  H
  H136     1.0000 0.83570  0.44140  0.24100  Biso   1.000  H
  H137     1.0000 0.90980  0.43020  0.28170  Biso   1.000  H
  C171     1.0000 0.91150  0.54060  0.21880  Biso   1.000  C
  H138     1.0000 0.92950  0.56430  0.19430  Biso   1.000  H
  H139     1.0000 0.93870  0.55470  0.25280  Biso   1.000  H
  H140     1.0000 0.86300  0.55380  0.21300  Biso   1.000  H
  C172     1.0000 0.92500  0.35460  0.16890  Biso   1.000  C
  H141     1.0000 0.94020  0.34130  0.13990  Biso   1.000  H
  H142     1.0000 0.87690  0.34140  0.16280  Biso   1.000  H
  H143     1.0000 0.95420  0.33010  0.19880  Biso   1.000  H
  O66      1.0000 0.95700  0.61600  0.12690  Biso   1.000  O
  C173     1.0000 0.26300  0.14200  0.22700  Biso   1.000  C
  H144     1.0000 0.25450  0.10870  0.20060  Biso   1.000  H
  C174     1.0000 0.31200  0.13100  0.27300  Biso   1.000  C
  H145     1.0000 0.33340  0.08570  0.27790  Biso   1.000  H
  C175     1.0000 0.30100  0.23100  0.30600  Biso   1.000  C
  H146     1.0000 0.31180  0.26270  0.33350  Biso   1.000  H
  C176     1.0000 0.24900  0.25100  0.25900  Biso   1.000  C
  H147     1.0000 0.23190  0.29770  0.25450  Biso   1.000  H
  C177     1.0000 0.21500  0.04600  0.79800  Biso   1.000  C
  H148     1.0000 0.26140  0.05940  0.81550  Biso   1.000  H
  C178     1.0000 0.19700  0.05400  0.74900  Biso   1.000  C
  H149     1.0000 0.22830  0.06900  0.73110  Biso   1.000  H
  C179     1.0000 0.08200  0.04900  0.74940  Biso   1.000  C
  H150     1.0000 0.03540  0.06290  0.73370  Biso   1.000  H
  C180     1.0000 0.11000  0.04100  0.80340  Biso   1.000  C
  H151     1.0000 0.07990  0.04980  0.82270  Biso   1.000  H
  O67      1.0000 0.96820  0.32190  0.17480  Biso   1.000  O
  C181     1.0000 0.94010  0.28300  0.20070  Biso   1.000  C
  N8       1.0000 0.97560  0.23150  0.22360  Biso   1.000  N
  C182     1.0000 0.02200  0.19000  0.20020  Biso   1.000  C
  H152     1.0000 0.03270  0.21780  0.17450  Biso   1.000  H
  H153     1.0000 0.06440  0.18050  0.22660  Biso   1.000  H
  H154     1.0000 0.00020  0.14590  0.18630  Biso   1.000  H
  C183     1.0000 0.94230  0.18300  0.25230  Biso   1.000  C
  H155     1.0000 0.91070  0.21360  0.26330  Biso   1.000  H
  H156     1.0000 0.91920  0.13930  0.23970  Biso   1.000  H
  H157     1.0000 0.98330  0.17380  0.28000  Biso   1.000  H
  C184     1.0000 0.88620  0.31900  0.22330  Biso   1.000  C
  H158     1.0000 0.87460  0.36300  0.20500  Biso   1.000  H
  H159     1.0000 0.84420  0.29130  0.21930  Biso   1.000  H
  H160     1.0000 0.90760  0.32920  0.25830  Biso   1.000  H
  O68      1.0000 0.86600  0.52900  0.16840  Biso   1.000  O
  La9      1.0000 0.50927  0.98252  0.58363  Biso   1.000  La
  La10     1.0000 0.54180  0.56854  0.55970  Biso   1.000  La
  O69      1.0000 0.59710  0.07580  0.63120  Biso   1.000  O
  O70      1.0000 0.51290  0.11460  0.56640  Biso   1.000  O
  O71      1.0000 0.44300  0.88800  0.61570  Biso   1.000  O
  O72      1.0000 0.92320  0.29690  0.88310  Biso   1.000  O
  O73      1.0000 0.89860  0.40920  0.86610  Biso   1.000  O
  O74      1.0000 0.58110  0.44500  0.57590  Biso   1.000  O
  O75      1.0000 0.51490  0.37020  0.51980  Biso   1.000  O
  O76      1.0000 0.56320  0.50090  0.47380  Biso   1.000  O
  O77      1.0000 0.53360  0.46730  0.14840  Biso   1.000  O
  O78      1.0000 0.63440  0.42700  0.14480  Biso   1.000  O
  O79      1.0000 0.91940  0.50190  0.47010  Biso   1.000  O
  O80      1.0000 0.88500  0.49620  0.53950  Biso   1.000  O
  O81      1.0000 0.64670  0.55480  0.53150  Biso   1.000  O
  C185     1.0000 0.56770  0.12550  0.60340  Biso   1.000  C
  C186     1.0000 0.59470  0.19930  0.61490  Biso   1.000  C
  C187     1.0000 0.56640  0.25470  0.58260  Biso   1.000  C
  H161     1.0000 0.53100  0.24560  0.55210  Biso   1.000  H
  C188     1.0000 0.58950  0.32300  0.59460  Biso   1.000  C
  C189     1.0000 0.55730  0.38540  0.55990  Biso   1.000  C
  C190     1.0000 0.64130  0.33620  0.64020  Biso   1.000  C
  H162     1.0000 0.65620  0.38320  0.64890  Biso   1.000  H
  C191     1.0000 0.67140  0.28100  0.67300  Biso   1.000  C
  C192     1.0000 0.64720  0.21170  0.65940  Biso   1.000  C
  H163     1.0000 0.66700  0.17330  0.68080  Biso   1.000  H
  C193     1.0000 0.72560  0.29530  0.72120  Biso   1.000  C
  C194     1.0000 0.73120  0.36140  0.74280  Biso   1.000  C
  H164     1.0000 0.69870  0.39700  0.72750  Biso   1.000  H
  C195     1.0000 0.78330  0.37620  0.78650  Biso   1.000  C
  H165     1.0000 0.78620  0.42180  0.80090  Biso   1.000  H
  C196     1.0000 0.82460  0.25850  0.78890  Biso   1.000  C
  H166     1.0000 0.85580  0.22230  0.80500  Biso   1.000  H
  C197     1.0000 0.77270  0.24410  0.74510  Biso   1.000  C
  H167     1.0000 0.76920  0.19820  0.73100  Biso   1.000  H
  C198     1.0000 0.83120  0.32540  0.80940  Biso   1.000  C
  C199     1.0000 0.88870  0.34420  0.85710  Biso   1.000  C
  C200     1.0000 0.62700  0.52130  0.49160  Biso   1.000  C
  C201     1.0000 0.67660  0.50700  0.46320  Biso   1.000  C
  C202     1.0000 0.74780  0.50950  0.48830  Biso   1.000  C
  H168     1.0000 0.76320  0.51810  0.52340  Biso   1.000  H
  C203     1.0000 0.79580  0.49980  0.46320  Biso   1.000  C
  C204     1.0000 0.87160  0.50060  0.49320  Biso   1.000  C
  C205     1.0000 0.77260  0.49010  0.41070  Biso   1.000  C
  H169     1.0000 0.80550  0.48540  0.39290  Biso   1.000  H
  C206     1.0000 0.70240  0.48720  0.38480  Biso   1.000  C
  C207     1.0000 0.65510  0.49440  0.41210  Biso   1.000  C
  H170     1.0000 0.60690  0.49040  0.39500  Biso   1.000  H
  C208     1.0000 0.67660  0.47900  0.32890  Biso   1.000  C
  C209     1.0000 0.62510  0.46270  0.22440  Biso   1.000  C
  C210     1.0000 0.59570  0.45040  0.16890  Biso   1.000  C
  C211     1.0000 0.71920  0.45000  0.30340  Biso   1.000  C
  H171     1.0000 0.76500  0.43520  0.32060  Biso   1.000  H
  C212     1.0000 0.69210  0.44300  0.25180  Biso   1.000  C
  H172     1.0000 0.72120  0.42440  0.23400  Biso   1.000  H
  C213     1.0000 0.58870  0.50070  0.25070  Biso   1.000  C
  H173     1.0000 0.54500  0.52030  0.23300  Biso   1.000  H
  C214     1.0000 0.61440  0.51060  0.30220  Biso   1.000  C
  H174     1.0000 0.58980  0.53880  0.31900  Biso   1.000  H
  O82      1.0000 0.46460  0.03300  0.64940  Biso   1.000  O
  N9       1.0000 0.41660  0.03800  0.71340  Biso   1.000  N
  C215     1.0000 0.43370  0.06320  0.67730  Biso   1.000  C
  C216     1.0000 0.38270  0.07680  0.74660  Biso   1.000  C
  H175     1.0000 0.38060  0.12720  0.73860  Biso   1.000  H
  H176     1.0000 0.33570  0.05860  0.74100  Biso   1.000  H
  H177     1.0000 0.40980  0.06980  0.78170  Biso   1.000  H
  C217     1.0000 0.41150  0.95940  0.71880  Biso   1.000  C
  H178     1.0000 0.42950  0.93570  0.69430  Biso   1.000  H
  H179     1.0000 0.43870  0.94530  0.75280  Biso   1.000  H
  H180     1.0000 0.36300  0.94620  0.71300  Biso   1.000  H
  C218     1.0000 0.42500  0.14540  0.66890  Biso   1.000  C
  H181     1.0000 0.44020  0.15870  0.63990  Biso   1.000  H
  H182     1.0000 0.37690  0.15860  0.66280  Biso   1.000  H
  H183     1.0000 0.45420  0.16990  0.69880  Biso   1.000  H
  O83      1.0000 0.45700  0.88400  0.62690  Biso   1.000  O
  C219     1.0000 0.76300  0.35800  0.72700  Biso   1.000  C
  H184     1.0000 0.75450  0.39130  0.70060  Biso   1.000  H
  C220     1.0000 0.81200  0.36900  0.77300  Biso   1.000  C
  H185     1.0000 0.83340  0.41430  0.77790  Biso   1.000  H
  C221     1.0000 0.80100  0.26900  0.80600  Biso   1.000  C
  H186     1.0000 0.81180  0.23730  0.83350  Biso   1.000  H
  C222     1.0000 0.74900  0.24900  0.75900  Biso   1.000  C
  H187     1.0000 0.73190  0.20230  0.75450  Biso   1.000  H
  C223     1.0000 0.71500  0.45400  0.29800  Biso   1.000  C
  H188     1.0000 0.76140  0.44060  0.31550  Biso   1.000  H
  C224     1.0000 0.69700  0.44600  0.24900  Biso   1.000  C
  H189     1.0000 0.72830  0.43100  0.23110  Biso   1.000  H
  C225     1.0000 0.58200  0.45100  0.24940  Biso   1.000  C
  H190     1.0000 0.53540  0.43710  0.23370  Biso   1.000  H
  C226     1.0000 0.61000  0.45900  0.30340  Biso   1.000  C
  H191     1.0000 0.57990  0.45020  0.32270  Biso   1.000  H
  O84      1.0000 0.46820  0.17810  0.67480  Biso   1.000  O
  C227     1.0000 0.44010  0.21700  0.70070  Biso   1.000  C
  N10      1.0000 0.47560  0.26850  0.72360  Biso   1.000  N
  C228     1.0000 0.52200  0.31000  0.70020  Biso   1.000  C
  H192     1.0000 0.53270  0.28220  0.67450  Biso   1.000  H
  H193     1.0000 0.56440  0.31950  0.72660  Biso   1.000  H
  H194     1.0000 0.50020  0.35410  0.68630  Biso   1.000  H
  C229     1.0000 0.44230  0.31700  0.75230  Biso   1.000  C
  H195     1.0000 0.41070  0.28640  0.76330  Biso   1.000  H
  H196     1.0000 0.41920  0.36070  0.73970  Biso   1.000  H
  H197     1.0000 0.48330  0.32620  0.78000  Biso   1.000  H
  C230     1.0000 0.38620  0.18100  0.72330  Biso   1.000  C
  H198     1.0000 0.37460  0.13700  0.70500  Biso   1.000  H
  H199     1.0000 0.34420  0.20870  0.71930  Biso   1.000  H
  H200     1.0000 0.40760  0.17080  0.75830  Biso   1.000  H
  O85      1.0000 0.36600  0.97100  0.66840  Biso   1.000  O
  La11     1.0000 0.00927  0.48252  0.58363  Biso   1.000  La
  La12     1.0000 0.04180  0.06854  0.55970  Biso   1.000  La
  O86      1.0000 0.09710  0.57580  0.63120  Biso   1.000  O
  O87      1.0000 0.01290  0.61460  0.56640  Biso   1.000  O
  O88      1.0000 0.94300  0.38800  0.61570  Biso   1.000  O
  O89      1.0000 0.42320  0.79690  0.88310  Biso   1.000  O
  O90      1.0000 0.39860  0.90920  0.86610  Biso   1.000  O
  O91      1.0000 0.08110  0.94500  0.57590  Biso   1.000  O
  O92      1.0000 0.01490  0.87020  0.51980  Biso   1.000  O
  O93      1.0000 0.06320  0.00090  0.47380  Biso   1.000  O
  O94      1.0000 0.03360  0.96730  0.14840  Biso   1.000  O
  O95      1.0000 0.13440  0.92700  0.14480  Biso   1.000  O
  O96      1.0000 0.41940  0.00190  0.47010  Biso   1.000  O
  O97      1.0000 0.38500  0.99620  0.53950  Biso   1.000  O
  O98      1.0000 0.14670  0.05480  0.53150  Biso   1.000  O
  C231     1.0000 0.06770  0.62550  0.60340  Biso   1.000  C
  C232     1.0000 0.09470  0.69930  0.61490  Biso   1.000  C
  C233     1.0000 0.06640  0.75470  0.58260  Biso   1.000  C
  H201     1.0000 0.03100  0.74560  0.55210  Biso   1.000  H
  C234     1.0000 0.08950  0.82300  0.59460  Biso   1.000  C
  C235     1.0000 0.05730  0.88540  0.55990  Biso   1.000  C
  C236     1.0000 0.14130  0.83620  0.64020  Biso   1.000  C
  H202     1.0000 0.15620  0.88320  0.64890  Biso   1.000  H
  C237     1.0000 0.17140  0.78100  0.67300  Biso   1.000  C
  C238     1.0000 0.14720  0.71170  0.65940  Biso   1.000  C
  H203     1.0000 0.16700  0.67330  0.68080  Biso   1.000  H
  C239     1.0000 0.22560  0.79530  0.72120  Biso   1.000  C
  C240     1.0000 0.23120  0.86140  0.74280  Biso   1.000  C
  H204     1.0000 0.19870  0.89700  0.72750  Biso   1.000  H
  C241     1.0000 0.28330  0.87620  0.78650  Biso   1.000  C
  H205     1.0000 0.28620  0.92180  0.80090  Biso   1.000  H
  C242     1.0000 0.32460  0.75850  0.78890  Biso   1.000  C
  H206     1.0000 0.35580  0.72230  0.80500  Biso   1.000  H
  C243     1.0000 0.27270  0.74410  0.74510  Biso   1.000  C
  H207     1.0000 0.26920  0.69820  0.73100  Biso   1.000  H
  C244     1.0000 0.33120  0.82540  0.80940  Biso   1.000  C
  C245     1.0000 0.38870  0.84420  0.85710  Biso   1.000  C
  C246     1.0000 0.12700  0.02130  0.49160  Biso   1.000  C
  C247     1.0000 0.17660  0.00700  0.46320  Biso   1.000  C
  C248     1.0000 0.24780  0.00950  0.48830  Biso   1.000  C
  H208     1.0000 0.26320  0.01810  0.52340  Biso   1.000  H
  C249     1.0000 0.29580  0.99980  0.46320  Biso   1.000  C
  C250     1.0000 0.37160  0.00060  0.49320  Biso   1.000  C
  C251     1.0000 0.27260  0.99010  0.41070  Biso   1.000  C
  H209     1.0000 0.30550  0.98540  0.39290  Biso   1.000  H
  C252     1.0000 0.20240  0.98720  0.38480  Biso   1.000  C
  C253     1.0000 0.15510  0.99440  0.41210  Biso   1.000  C
  H210     1.0000 0.10690  0.99040  0.39500  Biso   1.000  H
  C254     1.0000 0.17660  0.97900  0.32890  Biso   1.000  C
  C255     1.0000 0.12510  0.96270  0.22440  Biso   1.000  C
  C256     1.0000 0.09570  0.95040  0.16890  Biso   1.000  C
  C257     1.0000 0.21920  0.95000  0.30340  Biso   1.000  C
  H211     1.0000 0.26500  0.93520  0.32060  Biso   1.000  H
  C258     1.0000 0.19210  0.94300  0.25180  Biso   1.000  C
  H212     1.0000 0.22120  0.92440  0.23400  Biso   1.000  H
  C259     1.0000 0.08870  0.00070  0.25070  Biso   1.000  C
  H213     1.0000 0.04500  0.02030  0.23300  Biso   1.000  H
  C260     1.0000 0.11440  0.01060  0.30220  Biso   1.000  C
  H214     1.0000 0.08980  0.03880  0.31900  Biso   1.000  H
  O99      1.0000 0.96460  0.53300  0.64940  Biso   1.000  O
  N11      1.0000 0.91660  0.53800  0.71340  Biso   1.000  N
  C261     1.0000 0.93370  0.56320  0.67730  Biso   1.000  C
  C262     1.0000 0.88270  0.57680  0.74660  Biso   1.000  C
  H215     1.0000 0.88060  0.62720  0.73860  Biso   1.000  H
  H216     1.0000 0.83570  0.55860  0.74100  Biso   1.000  H
  H217     1.0000 0.90980  0.56980  0.78170  Biso   1.000  H
  C263     1.0000 0.91150  0.45940  0.71880  Biso   1.000  C
  H218     1.0000 0.92950  0.43570  0.69430  Biso   1.000  H
  H219     1.0000 0.93870  0.44530  0.75280  Biso   1.000  H
  H220     1.0000 0.86300  0.44620  0.71300  Biso   1.000  H
  C264     1.0000 0.92500  0.64540  0.66890  Biso   1.000  C
  H221     1.0000 0.94020  0.65870  0.63990  Biso   1.000  H
  H222     1.0000 0.87690  0.65860  0.66280  Biso   1.000  H
  H223     1.0000 0.95420  0.66990  0.69880  Biso   1.000  H
  O100     1.0000 0.95700  0.38400  0.62690  Biso   1.000  O
  C265     1.0000 0.26300  0.85800  0.72700  Biso   1.000  C
  H224     1.0000 0.25450  0.89130  0.70060  Biso   1.000  H
  C266     1.0000 0.31200  0.86900  0.77300  Biso   1.000  C
  H225     1.0000 0.33340  0.91430  0.77790  Biso   1.000  H
  C267     1.0000 0.30100  0.76900  0.80600  Biso   1.000  C
  H226     1.0000 0.31180  0.73730  0.83350  Biso   1.000  H
  C268     1.0000 0.24900  0.74900  0.75900  Biso   1.000  C
  H227     1.0000 0.23190  0.70230  0.75450  Biso   1.000  H
  C269     1.0000 0.21500  0.95400  0.29800  Biso   1.000  C
  H228     1.0000 0.26140  0.94060  0.31550  Biso   1.000  H
  C270     1.0000 0.19700  0.94600  0.24900  Biso   1.000  C
  H229     1.0000 0.22830  0.93100  0.23110  Biso   1.000  H
  C271     1.0000 0.08200  0.95100  0.24940  Biso   1.000  C
  H230     1.0000 0.03540  0.93710  0.23370  Biso   1.000  H
  C272     1.0000 0.11000  0.95900  0.30340  Biso   1.000  C
  H231     1.0000 0.07990  0.95020  0.32270  Biso   1.000  H
  O101     1.0000 0.96820  0.67810  0.67480  Biso   1.000  O
  C273     1.0000 0.94010  0.71700  0.70070  Biso   1.000  C
  N12      1.0000 0.97560  0.76850  0.72360  Biso   1.000  N
  C274     1.0000 0.02200  0.81000  0.70020  Biso   1.000  C
  H232     1.0000 0.03270  0.78220  0.67450  Biso   1.000  H
  H233     1.0000 0.06440  0.81950  0.72660  Biso   1.000  H
  H234     1.0000 0.00020  0.85410  0.68630  Biso   1.000  H
  C275     1.0000 0.94230  0.81700  0.75230  Biso   1.000  C
  H235     1.0000 0.91070  0.78640  0.76330  Biso   1.000  H
  H236     1.0000 0.91920  0.86070  0.73970  Biso   1.000  H
  H237     1.0000 0.98330  0.82620  0.78000  Biso   1.000  H
  C276     1.0000 0.88620  0.68100  0.72330  Biso   1.000  C
  H238     1.0000 0.87460  0.63700  0.70500  Biso   1.000  H
  H239     1.0000 0.84420  0.70870  0.71930  Biso   1.000  H
  H240     1.0000 0.90760  0.67080  0.75830  Biso   1.000  H
  O102     1.0000 0.86600  0.47100  0.66840  Biso   1.000  O
  La13     1.0000 0.49073  0.98252  0.91637  Biso   1.000  La
  La14     1.0000 0.45820  0.56854  0.94030  Biso   1.000  La
  O103     1.0000 0.40290  0.07580  0.86880  Biso   1.000  O
  O104     1.0000 0.48710  0.11460  0.93360  Biso   1.000  O
  O105     1.0000 0.55700  0.88800  0.88430  Biso   1.000  O
  O106     1.0000 0.07680  0.29690  0.61690  Biso   1.000  O
  O107     1.0000 0.10140  0.40920  0.63390  Biso   1.000  O
  O108     1.0000 0.41890  0.44500  0.92410  Biso   1.000  O
  O109     1.0000 0.48510  0.37020  0.98020  Biso   1.000  O
  O110     1.0000 0.43680  0.50090  0.02620  Biso   1.000  O
  O111     1.0000 0.46640  0.46730  0.35160  Biso   1.000  O
  O112     1.0000 0.36560  0.42700  0.35520  Biso   1.000  O
  O113     1.0000 0.08060  0.50190  0.02990  Biso   1.000  O
  O114     1.0000 0.11500  0.49620  0.96050  Biso   1.000  O
  O115     1.0000 0.35330  0.55480  0.96850  Biso   1.000  O
  C277     1.0000 0.43230  0.12550  0.89660  Biso   1.000  C
  C278     1.0000 0.40530  0.19930  0.88510  Biso   1.000  C
  C279     1.0000 0.43360  0.25470  0.91740  Biso   1.000  C
  H241     1.0000 0.46900  0.24560  0.94790  Biso   1.000  H
  C280     1.0000 0.41050  0.32300  0.90540  Biso   1.000  C
  C281     1.0000 0.44270  0.38540  0.94010  Biso   1.000  C
  C282     1.0000 0.35870  0.33620  0.85980  Biso   1.000  C
  H242     1.0000 0.34380  0.38320  0.85110  Biso   1.000  H
  C283     1.0000 0.32860  0.28100  0.82700  Biso   1.000  C
  C284     1.0000 0.35280  0.21170  0.84060  Biso   1.000  C
  H243     1.0000 0.33300  0.17330  0.81920  Biso   1.000  H
  C285     1.0000 0.27440  0.29530  0.77880  Biso   1.000  C
  C286     1.0000 0.26880  0.36140  0.75720  Biso   1.000  C
  H244     1.0000 0.30130  0.39700  0.77250  Biso   1.000  H
  C287     1.0000 0.21670  0.37620  0.71350  Biso   1.000  C
  H245     1.0000 0.21380  0.42180  0.69910  Biso   1.000  H
  C288     1.0000 0.17540  0.25850  0.71110  Biso   1.000  C
  H246     1.0000 0.14420  0.22230  0.69500  Biso   1.000  H
  C289     1.0000 0.22730  0.24410  0.75490  Biso   1.000  C
  H247     1.0000 0.23080  0.19820  0.76900  Biso   1.000  H
  C290     1.0000 0.16880  0.32540  0.69060  Biso   1.000  C
  C291     1.0000 0.11130  0.34420  0.64290  Biso   1.000  C
  C292     1.0000 0.37300  0.52130  0.00840  Biso   1.000  C
  C293     1.0000 0.32340  0.50700  0.03680  Biso   1.000  C
  C294     1.0000 0.25220  0.50950  0.01170  Biso   1.000  C
  H248     1.0000 0.23680  0.51810  0.97660  Biso   1.000  H
  C295     1.0000 0.20420  0.49980  0.03680  Biso   1.000  C
  C296     1.0000 0.12840  0.50060  0.00680  Biso   1.000  C
  C297     1.0000 0.22740  0.49010  0.08930  Biso   1.000  C
  H249     1.0000 0.19450  0.48540  0.10710  Biso   1.000  H
  C298     1.0000 0.29760  0.48720  0.11520  Biso   1.000  C
  C299     1.0000 0.34490  0.49440  0.08790  Biso   1.000  C
  H250     1.0000 0.39310  0.49040  0.10500  Biso   1.000  H
  C300     1.0000 0.32340  0.47900  0.17110  Biso   1.000  C
  C301     1.0000 0.37490  0.46270  0.27560  Biso   1.000  C
  C302     1.0000 0.40430  0.45040  0.33110  Biso   1.000  C
  C303     1.0000 0.28080  0.45000  0.19660  Biso   1.000  C
  H251     1.0000 0.23500  0.43520  0.17940  Biso   1.000  H
  C304     1.0000 0.30790  0.44300  0.24820  Biso   1.000  C
  H252     1.0000 0.27880  0.42440  0.26600  Biso   1.000  H
  C305     1.0000 0.41130  0.50070  0.24930  Biso   1.000  C
  H253     1.0000 0.45500  0.52030  0.26700  Biso   1.000  H
  C306     1.0000 0.38560  0.51060  0.19780  Biso   1.000  C
  H254     1.0000 0.41020  0.53880  0.18100  Biso   1.000  H
  O116     1.0000 0.53540  0.03300  0.85060  Biso   1.000  O
  N13      1.0000 0.58340  0.03800  0.78660  Biso   1.000  N
  C307     1.0000 0.56630  0.06320  0.82270  Biso   1.000  C
  C308     1.0000 0.61730  0.07680  0.75340  Biso   1.000  C
  H255     1.0000 0.61940  0.12720  0.76140  Biso   1.000  H
  H256     1.0000 0.66430  0.05860  0.75900  Biso   1.000  H
  H257     1.0000 0.59020  0.06980  0.71830  Biso   1.000  H
  C309     1.0000 0.58850  0.95940  0.78120  Biso   1.000  C
  H258     1.0000 0.57050  0.93570  0.80570  Biso   1.000  H
  H259     1.0000 0.56130  0.94530  0.74720  Biso   1.000  H
  H260     1.0000 0.63700  0.94620  0.78700  Biso   1.000  H
  C310     1.0000 0.57500  0.14540  0.83110  Biso   1.000  C
  H261     1.0000 0.55980  0.15870  0.86010  Biso   1.000  H
  H262     1.0000 0.62310  0.15860  0.83720  Biso   1.000  H
  H263     1.0000 0.54580  0.16990  0.80120  Biso   1.000  H
  O117     1.0000 0.54300  0.88400  0.87310  Biso   1.000  O
  C311     1.0000 0.23700  0.35800  0.77300  Biso   1.000  C
  H264     1.0000 0.24550  0.39130  0.79940  Biso   1.000  H
  C312     1.0000 0.18800  0.36900  0.72700  Biso   1.000  C
  H265     1.0000 0.16660  0.41430  0.72210  Biso   1.000  H
  C313     1.0000 0.19900  0.26900  0.69400  Biso   1.000  C
  H266     1.0000 0.18820  0.23730  0.66650  Biso   1.000  H
  C314     1.0000 0.25100  0.24900  0.74100  Biso   1.000  C
  H267     1.0000 0.26810  0.20230  0.74550  Biso   1.000  H
  C315     1.0000 0.28500  0.45400  0.20200  Biso   1.000  C
  H268     1.0000 0.23860  0.44060  0.18450  Biso   1.000  H
  C316     1.0000 0.30300  0.44600  0.25100  Biso   1.000  C
  H269     1.0000 0.27170  0.43100  0.26890  Biso   1.000  H
  C317     1.0000 0.41800  0.45100  0.25060  Biso   1.000  C
  H270     1.0000 0.46460  0.43710  0.26630  Biso   1.000  H
  C318     1.0000 0.39000  0.45900  0.19660  Biso   1.000  C
  H271     1.0000 0.42010  0.45020  0.17730  Biso   1.000  H
  O118     1.0000 0.53180  0.17810  0.82520  Biso   1.000  O
  C319     1.0000 0.55990  0.21700  0.79930  Biso   1.000  C
  N14      1.0000 0.52440  0.26850  0.77640  Biso   1.000  N
  C320     1.0000 0.47800  0.31000  0.79980  Biso   1.000  C
  H272     1.0000 0.46730  0.28220  0.82550  Biso   1.000  H
  H273     1.0000 0.43560  0.31950  0.77340  Biso   1.000  H
  H274     1.0000 0.49980  0.35410  0.81370  Biso   1.000  H
  C321     1.0000 0.55770  0.31700  0.74770  Biso   1.000  C
  H275     1.0000 0.58930  0.28640  0.73670  Biso   1.000  H
  H276     1.0000 0.58080  0.36070  0.76030  Biso   1.000  H
  H277     1.0000 0.51670  0.32620  0.72000  Biso   1.000  H
  C322     1.0000 0.61380  0.18100  0.77670  Biso   1.000  C
  H278     1.0000 0.62540  0.13700  0.79500  Biso   1.000  H
  H279     1.0000 0.65580  0.20870  0.78070  Biso   1.000  H
  H280     1.0000 0.59240  0.17080  0.74170  Biso   1.000  H
  O119     1.0000 0.63400  0.97100  0.83160  Biso   1.000  O
  La15     1.0000 0.99073  0.48252  0.91637  Biso   1.000  La
  La16     1.0000 0.95820  0.06854  0.94030  Biso   1.000  La
  O120     1.0000 0.90290  0.57580  0.86880  Biso   1.000  O
  O121     1.0000 0.98710  0.61460  0.93360  Biso   1.000  O
  O122     1.0000 0.05700  0.38800  0.88430  Biso   1.000  O
  O123     1.0000 0.57680  0.79690  0.61690  Biso   1.000  O
  O124     1.0000 0.60140  0.90920  0.63390  Biso   1.000  O
  O125     1.0000 0.91890  0.94500  0.92410  Biso   1.000  O
  O126     1.0000 0.98510  0.87020  0.98020  Biso   1.000  O
  O127     1.0000 0.93680  0.00090  0.02620  Biso   1.000  O
  O128     1.0000 0.96640  0.96730  0.35160  Biso   1.000  O
  O129     1.0000 0.86560  0.92700  0.35520  Biso   1.000  O
  O130     1.0000 0.58060  0.00190  0.02990  Biso   1.000  O
  O131     1.0000 0.61500  0.99620  0.96050  Biso   1.000  O
  O132     1.0000 0.85330  0.05480  0.96850  Biso   1.000  O
  C323     1.0000 0.93230  0.62550  0.89660  Biso   1.000  C
  C324     1.0000 0.90530  0.69930  0.88510  Biso   1.000  C
  C325     1.0000 0.93360  0.75470  0.91740  Biso   1.000  C
  H281     1.0000 0.96900  0.74560  0.94790  Biso   1.000  H
  C326     1.0000 0.91050  0.82300  0.90540  Biso   1.000  C
  C327     1.0000 0.94270  0.88540  0.94010  Biso   1.000  C
  C328     1.0000 0.85870  0.83620  0.85980  Biso   1.000  C
  H282     1.0000 0.84380  0.88320  0.85110  Biso   1.000  H
  C329     1.0000 0.82860  0.78100  0.82700  Biso   1.000  C
  C330     1.0000 0.85280  0.71170  0.84060  Biso   1.000  C
  H283     1.0000 0.83300  0.67330  0.81920  Biso   1.000  H
  C331     1.0000 0.77440  0.79530  0.77880  Biso   1.000  C
  C332     1.0000 0.76880  0.86140  0.75720  Biso   1.000  C
  H284     1.0000 0.80130  0.89700  0.77250  Biso   1.000  H
  C333     1.0000 0.71670  0.87620  0.71350  Biso   1.000  C
  H285     1.0000 0.71380  0.92180  0.69910  Biso   1.000  H
  C334     1.0000 0.67540  0.75850  0.71110  Biso   1.000  C
  H286     1.0000 0.64420  0.72230  0.69500  Biso   1.000  H
  C335     1.0000 0.72730  0.74410  0.75490  Biso   1.000  C
  H287     1.0000 0.73080  0.69820  0.76900  Biso   1.000  H
  C336     1.0000 0.66880  0.82540  0.69060  Biso   1.000  C
  C337     1.0000 0.61130  0.84420  0.64290  Biso   1.000  C
  C338     1.0000 0.87300  0.02130  0.00840  Biso   1.000  C
  C339     1.0000 0.82340  0.00700  0.03680  Biso   1.000  C
  C340     1.0000 0.75220  0.00950  0.01170  Biso   1.000  C
  H288     1.0000 0.73680  0.01810  0.97660  Biso   1.000  H
  C341     1.0000 0.70420  0.99980  0.03680  Biso   1.000  C
  C342     1.0000 0.62840  0.00060  0.00680  Biso   1.000  C
  C343     1.0000 0.72740  0.99010  0.08930  Biso   1.000  C
  H289     1.0000 0.69450  0.98540  0.10710  Biso   1.000  H
  C344     1.0000 0.79760  0.98720  0.11520  Biso   1.000  C
  C345     1.0000 0.84490  0.99440  0.08790  Biso   1.000  C
  H290     1.0000 0.89310  0.99040  0.10500  Biso   1.000  H
  C346     1.0000 0.82340  0.97900  0.17110  Biso   1.000  C
  C347     1.0000 0.87490  0.96270  0.27560  Biso   1.000  C
  C348     1.0000 0.90430  0.95040  0.33110  Biso   1.000  C
  C349     1.0000 0.78080  0.95000  0.19660  Biso   1.000  C
  H291     1.0000 0.73500  0.93520  0.17940  Biso   1.000  H
  C350     1.0000 0.80790  0.94300  0.24820  Biso   1.000  C
  H292     1.0000 0.77880  0.92440  0.26600  Biso   1.000  H
  C351     1.0000 0.91130  0.00070  0.24930  Biso   1.000  C
  H293     1.0000 0.95500  0.02030  0.26700  Biso   1.000  H
  C352     1.0000 0.88560  0.01060  0.19780  Biso   1.000  C
  H294     1.0000 0.91020  0.03880  0.18100  Biso   1.000  H
  O133     1.0000 0.03540  0.53300  0.85060  Biso   1.000  O
  N15      1.0000 0.08340  0.53800  0.78660  Biso   1.000  N
  C353     1.0000 0.06630  0.56320  0.82270  Biso   1.000  C
  C354     1.0000 0.11730  0.57680  0.75340  Biso   1.000  C
  H295     1.0000 0.11940  0.62720  0.76140  Biso   1.000  H
  H296     1.0000 0.16430  0.55860  0.75900  Biso   1.000  H
  H297     1.0000 0.09020  0.56980  0.71830  Biso   1.000  H
  C355     1.0000 0.08850  0.45940  0.78120  Biso   1.000  C
  H298     1.0000 0.07050  0.43570  0.80570  Biso   1.000  H
  H299     1.0000 0.06130  0.44530  0.74720  Biso   1.000  H
  H300     1.0000 0.13700  0.44620  0.78700  Biso   1.000  H
  C356     1.0000 0.07500  0.64540  0.83110  Biso   1.000  C
  H301     1.0000 0.05980  0.65870  0.86010  Biso   1.000  H
  H302     1.0000 0.12310  0.65860  0.83720  Biso   1.000  H
  H303     1.0000 0.04580  0.66990  0.80120  Biso   1.000  H
  O134     1.0000 0.04300  0.38400  0.87310  Biso   1.000  O
  C357     1.0000 0.73700  0.85800  0.77300  Biso   1.000  C
  H304     1.0000 0.74550  0.89130  0.79940  Biso   1.000  H
  C358     1.0000 0.68800  0.86900  0.72700  Biso   1.000  C
  H305     1.0000 0.66660  0.91430  0.72210  Biso   1.000  H
  C359     1.0000 0.69900  0.76900  0.69400  Biso   1.000  C
  H306     1.0000 0.68820  0.73730  0.66650  Biso   1.000  H
  C360     1.0000 0.75100  0.74900  0.74100  Biso   1.000  C
  H307     1.0000 0.76810  0.70230  0.74550  Biso   1.000  H
  C361     1.0000 0.78500  0.95400  0.20200  Biso   1.000  C
  H308     1.0000 0.73860  0.94060  0.18450  Biso   1.000  H
  C362     1.0000 0.80300  0.94600  0.25100  Biso   1.000  C
  H309     1.0000 0.77170  0.93100  0.26890  Biso   1.000  H
  C363     1.0000 0.91800  0.95100  0.25060  Biso   1.000  C
  H310     1.0000 0.96460  0.93710  0.26630  Biso   1.000  H
  C364     1.0000 0.89000  0.95900  0.19660  Biso   1.000  C
  H311     1.0000 0.92010  0.95020  0.17730  Biso   1.000  H
  O135     1.0000 0.03180  0.67810  0.82520  Biso   1.000  O
  C365     1.0000 0.05990  0.71700  0.79930  Biso   1.000  C
  N16      1.0000 0.02440  0.76850  0.77640  Biso   1.000  N
  C366     1.0000 0.97800  0.81000  0.79980  Biso   1.000  C
  H312     1.0000 0.96730  0.78220  0.82550  Biso   1.000  H
  H313     1.0000 0.93560  0.81950  0.77340  Biso   1.000  H
  H314     1.0000 0.99980  0.85410  0.81370  Biso   1.000  H
  C367     1.0000 0.05770  0.81700  0.74770  Biso   1.000  C
  H315     1.0000 0.08930  0.78640  0.73670  Biso   1.000  H
  H316     1.0000 0.08080  0.86070  0.76030  Biso   1.000  H
  H317     1.0000 0.01670  0.82620  0.72000  Biso   1.000  H
  C368     1.0000 0.11380  0.68100  0.77670  Biso   1.000  C
  H318     1.0000 0.12540  0.63700  0.79500  Biso   1.000  H
  H319     1.0000 0.15580  0.70870  0.78070  Biso   1.000  H
  H320     1.0000 0.09240  0.67080  0.74170  Biso   1.000  H
  O136     1.0000 0.13400  0.47100  0.83160  Biso   1.000  O
