data_image0
_cell_length_a       19.8953
_cell_length_b       18.6848
_cell_length_c       27.9037
_cell_angle_alpha    90
_cell_angle_beta     107.266
_cell_angle_gamma    90

_symmetry_space_group_name_H-M    "P 1"
_symmetry_int_tables_number       1

loop_
  _symmetry_equiv_pos_as_xyz
  'x, y, z'

loop_
  _atom_site_label
  _atom_site_occupancy
  _atom_site_fract_x
  _atom_site_fract_y
  _atom_site_fract_z
  _atom_site_thermal_displace_type
  _atom_site_B_iso_or_equiv
  _atom_site_type_symbol
  Sm1      1.0000 0.49451  0.01622  0.41361  Biso   1.000  Sm
  Sm2      1.0000 0.45628  0.43118  0.44133  Biso   1.000  Sm
  O1       1.0000 0.40771  0.92582  0.36681  Biso   1.000  O
  O2       1.0000 0.48816  0.88729  0.43482  Biso   1.000  O
  O3       1.0000 0.57650  0.10570  0.39060  Biso   1.000  O
  O4       1.0000 0.07900  0.70110  0.11503  Biso   1.000  O
  O5       1.0000 0.09180  0.58898  0.13871  Biso   1.000  O
  O6       1.0000 0.42100  0.55305  0.42546  Biso   1.000  O
  O7       1.0000 0.48797  0.62949  0.48147  Biso   1.000  O
  O8       1.0000 0.43817  0.50442  0.52859  Biso   1.000  O
  O9       1.0000 0.46810  0.53550  0.85656  Biso   1.000  O
  O10      1.0000 0.36370  0.56870  0.85881  Biso   1.000  O
  O11      1.0000 0.08292  0.49177  0.53744  Biso   1.000  O
  O12      1.0000 0.10995  0.50000  0.46692  Biso   1.000  O
  O13      1.0000 0.35508  0.44660  0.47122  Biso   1.000  O
  C1       1.0000 0.43530  0.87620  0.39653  Biso   1.000  C
  C2       1.0000 0.40600  0.80170  0.38614  Biso   1.000  C
  C3       1.0000 0.43510  0.74580  0.41837  Biso   1.000  C
  H1       1.0000 0.47180  0.75500  0.44840  Biso   1.000  H
  C4       1.0000 0.41060  0.67650  0.40682  Biso   1.000  C
  C5       1.0000 0.44370  0.61380  0.44087  Biso   1.000  C
  C6       1.0000 0.35680  0.66320  0.36272  Biso   1.000  C
  H2       1.0000 0.34050  0.61560  0.35480  Biso   1.000  H
  C7       1.0000 0.32630  0.71920  0.32968  Biso   1.000  C
  C8       1.0000 0.35160  0.78840  0.34249  Biso   1.000  C
  H3       1.0000 0.33140  0.82710  0.32100  Biso   1.000  H
  C9       1.0000 0.26960  0.70390  0.28241  Biso   1.000  C
  C10      1.0000 0.26180  0.63560  0.26140  Biso   1.000  C
  H4       1.0000 0.29340  0.59870  0.27750  Biso   1.000  H
  C11      1.0000 0.20900  0.62020  0.21760  Biso   1.000  C
  H5       1.0000 0.20400  0.57280  0.20470  Biso   1.000  H
  C12      1.0000 0.17310  0.74230  0.21140  Biso   1.000  C
  H6       1.0000 0.14380  0.77970  0.19360  Biso   1.000  H
  C13      1.0000 0.22470  0.75740  0.25580  Biso   1.000  C
  H7       1.0000 0.22960  0.80500  0.26850  Biso   1.000  H
  C14      1.0000 0.16370  0.67260  0.19237  Biso   1.000  C
  C15      1.0000 0.10740  0.65340  0.14528  Biso   1.000  C
  C16      1.0000 0.37570  0.48160  0.51112  Biso   1.000  C
  C17      1.0000 0.32410  0.49460  0.54003  Biso   1.000  C
  C18      1.0000 0.25260  0.48970  0.51515  Biso   1.000  C
  H8       1.0000 0.23700  0.48050  0.48010  Biso   1.000  H
  C19      1.0000 0.20380  0.49840  0.54163  Biso   1.000  C
  C20      1.0000 0.12700  0.49630  0.51382  Biso   1.000  C
  C21      1.0000 0.22710  0.50870  0.59306  Biso   1.000  C
  H9       1.0000 0.19380  0.51240  0.61130  Biso   1.000  H
  C22      1.0000 0.29960  0.51380  0.61887  Biso   1.000  C
  C23      1.0000 0.34720  0.50760  0.59112  Biso   1.000  C
  H10      1.0000 0.39620  0.51230  0.60750  Biso   1.000  H
  C24      1.0000 0.32530  0.52260  0.67439  Biso   1.000  C
  C25      1.0000 0.37570  0.53830  0.77895  Biso   1.000  C
  C26      1.0000 0.40380  0.54920  0.83472  Biso   1.000  C
  C27      1.0000 0.27930  0.54400  0.70010  Biso   1.000  C
  H11      1.0000 0.23120  0.55370  0.68320  Biso   1.000  H
  C28      1.0000 0.30690  0.55070  0.75170  Biso   1.000  C
  H12      1.0000 0.27550  0.56500  0.76980  Biso   1.000  H
  C29      1.0000 0.41610  0.50100  0.75320  Biso   1.000  C
  H13      1.0000 0.46040  0.48110  0.77130  Biso   1.000  H
  C30      1.0000 0.39080  0.49340  0.70140  Biso   1.000  C
  H14      1.0000 0.41800  0.46830  0.68400  Biso   1.000  H
  O14      1.0000 0.54380  0.96380  0.35420  Biso   1.000  O
  N1       1.0000 0.58070  0.96180  0.28410  Biso   1.000  N
  C31      1.0000 0.56290  0.93730  0.32120  Biso   1.000  C
  C32      1.0000 0.60770  0.92390  0.24880  Biso   1.000  C
  H15      1.0000 0.61010  0.87260  0.25660  Biso   1.000  H
  H16      1.0000 0.65490  0.94160  0.25110  Biso   1.000  H
  H17      1.0000 0.57650  0.93160  0.21470  Biso   1.000  H
  C33      1.0000 0.57640  0.03880  0.27890  Biso   1.000  C
  H18      1.0000 0.55780  0.05900  0.30480  Biso   1.000  H
  H19      1.0000 0.54510  0.05120  0.24570  Biso   1.000  H
  H20      1.0000 0.62350  0.05830  0.28280  Biso   1.000  H
  C34      1.0000 0.57600  0.85420  0.32700  Biso   1.000  C
  H21      1.0000 0.56210  0.83670  0.35580  Biso   1.000  H
  H22      1.0000 0.62610  0.84420  0.33230  Biso   1.000  H
  H23      1.0000 0.54810  0.82990  0.29640  Biso   1.000  H
  O15      1.0000 0.54960  0.11230  0.37540  Biso   1.000  O
  C35      1.0000 0.22980  0.64130  0.27860  Biso   1.000  C
  H24      1.0000 0.23860  0.60900  0.30610  Biso   1.000  H
  C36      1.0000 0.17730  0.62660  0.23420  Biso   1.000  C
  H25      1.0000 0.14980  0.58450  0.23190  Biso   1.000  H
  C37      1.0000 0.19770  0.73480  0.19900  Biso   1.000  C
  H26      1.0000 0.18580  0.76960  0.17300  Biso   1.000  H
  C38      1.0000 0.25080  0.74980  0.24360  Biso   1.000  C
  H27      1.0000 0.27460  0.79440  0.24660  Biso   1.000  H
  C39      1.0000 0.28940  0.55000  0.70600  Biso   1.000  C
  H28      1.0000 0.24240  0.56330  0.68890  Biso   1.000  H
  C40      1.0000 0.30730  0.56100  0.75750  Biso   1.000  C
  H29      1.0000 0.27760  0.58160  0.77490  Biso   1.000  H
  C41      1.0000 0.41740  0.55970  0.75020  Biso   1.000  C
  H30      1.0000 0.46210  0.58110  0.76500  Biso   1.000  H
  C42      1.0000 0.39200  0.54870  0.69880  Biso   1.000  C
  H31      1.0000 0.42220  0.55980  0.67910  Biso   1.000  H
  O16      1.0000 0.53700  0.81900  0.32930  Biso   1.000  O
  C43      1.0000 0.55810  0.78730  0.29810  Biso   1.000  C
  N2       1.0000 0.53370  0.72560  0.27830  Biso   1.000  N
  C44      1.0000 0.48360  0.68780  0.29780  Biso   1.000  C
  H32      1.0000 0.47280  0.71540  0.32360  Biso   1.000  H
  H33      1.0000 0.44110  0.67800  0.27150  Biso   1.000  H
  H34      1.0000 0.50520  0.64350  0.31170  Biso   1.000  H
  C45      1.0000 0.55690  0.68310  0.24270  Biso   1.000  C
  H35      1.0000 0.58850  0.71320  0.23170  Biso   1.000  H
  H36      1.0000 0.58000  0.63890  0.25530  Biso   1.000  H
  H37      1.0000 0.51590  0.67350  0.21510  Biso   1.000  H
  C46      1.0000 0.61220  0.82870  0.27690  Biso   1.000  C
  H38      1.0000 0.62390  0.87270  0.29520  Biso   1.000  H
  H39      1.0000 0.65430  0.80110  0.28090  Biso   1.000  H
  H40      1.0000 0.59090  0.83890  0.24200  Biso   1.000  H
  O17      1.0000 0.63870  0.02800  0.32880  Biso   1.000  O
  Sm3      1.0000 0.99451  0.51622  0.41361  Biso   1.000  Sm
  Sm4      1.0000 0.95628  0.93118  0.44133  Biso   1.000  Sm
  O18      1.0000 0.90771  0.42582  0.36681  Biso   1.000  O
  O19      1.0000 0.98816  0.38729  0.43482  Biso   1.000  O
  O20      1.0000 0.07650  0.60570  0.39060  Biso   1.000  O
  O21      1.0000 0.57900  0.20110  0.11503  Biso   1.000  O
  O22      1.0000 0.59180  0.08898  0.13871  Biso   1.000  O
  O23      1.0000 0.92100  0.05305  0.42546  Biso   1.000  O
  O24      1.0000 0.98797  0.12949  0.48147  Biso   1.000  O
  O25      1.0000 0.93817  0.00442  0.52859  Biso   1.000  O
  O26      1.0000 0.96810  0.03550  0.85656  Biso   1.000  O
  O27      1.0000 0.86370  0.06870  0.85881  Biso   1.000  O
  O28      1.0000 0.58292  0.99177  0.53744  Biso   1.000  O
  O29      1.0000 0.60995  0.00000  0.46692  Biso   1.000  O
  O30      1.0000 0.85508  0.94660  0.47122  Biso   1.000  O
  C47      1.0000 0.93530  0.37620  0.39653  Biso   1.000  C
  C48      1.0000 0.90600  0.30170  0.38614  Biso   1.000  C
  C49      1.0000 0.93510  0.24580  0.41837  Biso   1.000  C
  H41      1.0000 0.97180  0.25500  0.44840  Biso   1.000  H
  C50      1.0000 0.91060  0.17650  0.40682  Biso   1.000  C
  C51      1.0000 0.94370  0.11380  0.44087  Biso   1.000  C
  C52      1.0000 0.85680  0.16320  0.36272  Biso   1.000  C
  H42      1.0000 0.84050  0.11560  0.35480  Biso   1.000  H
  C53      1.0000 0.82630  0.21920  0.32968  Biso   1.000  C
  C54      1.0000 0.85160  0.28840  0.34249  Biso   1.000  C
  H43      1.0000 0.83140  0.32710  0.32100  Biso   1.000  H
  C55      1.0000 0.76960  0.20390  0.28241  Biso   1.000  C
  C56      1.0000 0.76180  0.13560  0.26140  Biso   1.000  C
  H44      1.0000 0.79340  0.09870  0.27750  Biso   1.000  H
  C57      1.0000 0.70900  0.12020  0.21760  Biso   1.000  C
  H45      1.0000 0.70400  0.07280  0.20470  Biso   1.000  H
  C58      1.0000 0.67310  0.24230  0.21140  Biso   1.000  C
  H46      1.0000 0.64380  0.27970  0.19360  Biso   1.000  H
  C59      1.0000 0.72470  0.25740  0.25580  Biso   1.000  C
  H47      1.0000 0.72960  0.30500  0.26850  Biso   1.000  H
  C60      1.0000 0.66370  0.17260  0.19237  Biso   1.000  C
  C61      1.0000 0.60740  0.15340  0.14528  Biso   1.000  C
  C62      1.0000 0.87570  0.98160  0.51112  Biso   1.000  C
  C63      1.0000 0.82410  0.99460  0.54003  Biso   1.000  C
  C64      1.0000 0.75260  0.98970  0.51515  Biso   1.000  C
  H48      1.0000 0.73700  0.98050  0.48010  Biso   1.000  H
  C65      1.0000 0.70380  0.99840  0.54163  Biso   1.000  C
  C66      1.0000 0.62700  0.99630  0.51382  Biso   1.000  C
  C67      1.0000 0.72710  0.00870  0.59306  Biso   1.000  C
  H49      1.0000 0.69380  0.01240  0.61130  Biso   1.000  H
  C68      1.0000 0.79960  0.01380  0.61887  Biso   1.000  C
  C69      1.0000 0.84720  0.00760  0.59112  Biso   1.000  C
  H50      1.0000 0.89620  0.01230  0.60750  Biso   1.000  H
  C70      1.0000 0.82530  0.02260  0.67439  Biso   1.000  C
  C71      1.0000 0.87570  0.03830  0.77895  Biso   1.000  C
  C72      1.0000 0.90380  0.04920  0.83472  Biso   1.000  C
  C73      1.0000 0.77930  0.04400  0.70010  Biso   1.000  C
  H51      1.0000 0.73120  0.05370  0.68320  Biso   1.000  H
  C74      1.0000 0.80690  0.05070  0.75170  Biso   1.000  C
  H52      1.0000 0.77550  0.06500  0.76980  Biso   1.000  H
  C75      1.0000 0.91610  0.00100  0.75320  Biso   1.000  C
  H53      1.0000 0.96040  0.98110  0.77130  Biso   1.000  H
  C76      1.0000 0.89080  0.99340  0.70140  Biso   1.000  C
  H54      1.0000 0.91800  0.96830  0.68400  Biso   1.000  H
  O31      1.0000 0.04380  0.46380  0.35420  Biso   1.000  O
  N3       1.0000 0.08070  0.46180  0.28410  Biso   1.000  N
  C77      1.0000 0.06290  0.43730  0.32120  Biso   1.000  C
  C78      1.0000 0.10770  0.42390  0.24880  Biso   1.000  C
  H55      1.0000 0.11010  0.37260  0.25660  Biso   1.000  H
  H56      1.0000 0.15490  0.44160  0.25110  Biso   1.000  H
  H57      1.0000 0.07650  0.43160  0.21470  Biso   1.000  H
  C79      1.0000 0.07640  0.53880  0.27890  Biso   1.000  C
  H58      1.0000 0.05780  0.55900  0.30480  Biso   1.000  H
  H59      1.0000 0.04510  0.55120  0.24570  Biso   1.000  H
  H60      1.0000 0.12350  0.55830  0.28280  Biso   1.000  H
  C80      1.0000 0.07600  0.35420  0.32700  Biso   1.000  C
  H61      1.0000 0.06210  0.33670  0.35580  Biso   1.000  H
  H62      1.0000 0.12610  0.34420  0.33230  Biso   1.000  H
  H63      1.0000 0.04810  0.32990  0.29640  Biso   1.000  H
  O32      1.0000 0.04960  0.61230  0.37540  Biso   1.000  O
  C81      1.0000 0.72980  0.14130  0.27860  Biso   1.000  C
  H64      1.0000 0.73860  0.10900  0.30610  Biso   1.000  H
  C82      1.0000 0.67730  0.12660  0.23420  Biso   1.000  C
  H65      1.0000 0.64980  0.08450  0.23190  Biso   1.000  H
  C83      1.0000 0.69770  0.23480  0.19900  Biso   1.000  C
  H66      1.0000 0.68580  0.26960  0.17300  Biso   1.000  H
  C84      1.0000 0.75080  0.24980  0.24360  Biso   1.000  C
  H67      1.0000 0.77460  0.29440  0.24660  Biso   1.000  H
  C85      1.0000 0.78940  0.05000  0.70600  Biso   1.000  C
  H68      1.0000 0.74240  0.06330  0.68890  Biso   1.000  H
  C86      1.0000 0.80730  0.06100  0.75750  Biso   1.000  C
  H69      1.0000 0.77760  0.08160  0.77490  Biso   1.000  H
  C87      1.0000 0.91740  0.05970  0.75020  Biso   1.000  C
  H70      1.0000 0.96210  0.08110  0.76500  Biso   1.000  H
  C88      1.0000 0.89200  0.04870  0.69880  Biso   1.000  C
  H71      1.0000 0.92220  0.05980  0.67910  Biso   1.000  H
  O33      1.0000 0.03700  0.31900  0.32930  Biso   1.000  O
  C89      1.0000 0.05810  0.28730  0.29810  Biso   1.000  C
  N4       1.0000 0.03370  0.22560  0.27830  Biso   1.000  N
  C90      1.0000 0.98360  0.18780  0.29780  Biso   1.000  C
  H72      1.0000 0.97280  0.21540  0.32360  Biso   1.000  H
  H73      1.0000 0.94110  0.17800  0.27150  Biso   1.000  H
  H74      1.0000 0.00520  0.14350  0.31170  Biso   1.000  H
  C91      1.0000 0.05690  0.18310  0.24270  Biso   1.000  C
  H75      1.0000 0.08850  0.21320  0.23170  Biso   1.000  H
  H76      1.0000 0.08000  0.13890  0.25530  Biso   1.000  H
  H77      1.0000 0.01590  0.17350  0.21510  Biso   1.000  H
  C92      1.0000 0.11220  0.32870  0.27690  Biso   1.000  C
  H78      1.0000 0.12390  0.37270  0.29520  Biso   1.000  H
  H79      1.0000 0.15430  0.30110  0.28090  Biso   1.000  H
  H80      1.0000 0.09090  0.33890  0.24200  Biso   1.000  H
  O34      1.0000 0.13870  0.52800  0.32880  Biso   1.000  O
  Sm5      1.0000 0.50549  0.01622  0.08639  Biso   1.000  Sm
  Sm6      1.0000 0.54372  0.43118  0.05867  Biso   1.000  Sm
  O35      1.0000 0.59229  0.92582  0.13319  Biso   1.000  O
  O36      1.0000 0.51184  0.88729  0.06518  Biso   1.000  O
  O37      1.0000 0.42350  0.10570  0.10940  Biso   1.000  O
  O38      1.0000 0.92100  0.70110  0.38497  Biso   1.000  O
  O39      1.0000 0.90820  0.58898  0.36129  Biso   1.000  O
  O40      1.0000 0.57900  0.55305  0.07454  Biso   1.000  O
  O41      1.0000 0.51203  0.62949  0.01853  Biso   1.000  O
  O42      1.0000 0.56183  0.50442  0.97141  Biso   1.000  O
  O43      1.0000 0.53190  0.53550  0.64344  Biso   1.000  O
  O44      1.0000 0.63630  0.56870  0.64119  Biso   1.000  O
  O45      1.0000 0.91708  0.49177  0.96256  Biso   1.000  O
  O46      1.0000 0.89005  0.50000  0.03308  Biso   1.000  O
  O47      1.0000 0.64492  0.44660  0.02878  Biso   1.000  O
  C93      1.0000 0.56470  0.87620  0.10347  Biso   1.000  C
  C94      1.0000 0.59400  0.80170  0.11386  Biso   1.000  C
  C95      1.0000 0.56490  0.74580  0.08163  Biso   1.000  C
  H81      1.0000 0.52820  0.75500  0.05160  Biso   1.000  H
  C96      1.0000 0.58940  0.67650  0.09318  Biso   1.000  C
  C97      1.0000 0.55630  0.61380  0.05913  Biso   1.000  C
  C98      1.0000 0.64320  0.66320  0.13728  Biso   1.000  C
  H82      1.0000 0.65950  0.61560  0.14520  Biso   1.000  H
  C99      1.0000 0.67370  0.71920  0.17032  Biso   1.000  C
  C100     1.0000 0.64840  0.78840  0.15751  Biso   1.000  C
  H83      1.0000 0.66860  0.82710  0.17900  Biso   1.000  H
  C101     1.0000 0.73040  0.70390  0.21759  Biso   1.000  C
  C102     1.0000 0.73820  0.63560  0.23860  Biso   1.000  C
  H84      1.0000 0.70660  0.59870  0.22250  Biso   1.000  H
  C103     1.0000 0.79100  0.62020  0.28240  Biso   1.000  C
  H85      1.0000 0.79600  0.57280  0.29530  Biso   1.000  H
  C104     1.0000 0.82690  0.74230  0.28860  Biso   1.000  C
  H86      1.0000 0.85620  0.77970  0.30640  Biso   1.000  H
  C105     1.0000 0.77530  0.75740  0.24420  Biso   1.000  C
  H87      1.0000 0.77040  0.80500  0.23150  Biso   1.000  H
  C106     1.0000 0.83630  0.67260  0.30763  Biso   1.000  C
  C107     1.0000 0.89260  0.65340  0.35472  Biso   1.000  C
  C108     1.0000 0.62430  0.48160  0.98888  Biso   1.000  C
  C109     1.0000 0.67590  0.49460  0.95997  Biso   1.000  C
  C110     1.0000 0.74740  0.48970  0.98485  Biso   1.000  C
  H88      1.0000 0.76300  0.48050  0.01990  Biso   1.000  H
  C111     1.0000 0.79620  0.49840  0.95837  Biso   1.000  C
  C112     1.0000 0.87300  0.49630  0.98618  Biso   1.000  C
  C113     1.0000 0.77290  0.50870  0.90694  Biso   1.000  C
  H89      1.0000 0.80620  0.51240  0.88870  Biso   1.000  H
  C114     1.0000 0.70040  0.51380  0.88113  Biso   1.000  C
  C115     1.0000 0.65280  0.50760  0.90888  Biso   1.000  C
  H90      1.0000 0.60380  0.51230  0.89250  Biso   1.000  H
  C116     1.0000 0.67470  0.52260  0.82561  Biso   1.000  C
  C117     1.0000 0.62430  0.53830  0.72105  Biso   1.000  C
  C118     1.0000 0.59620  0.54920  0.66528  Biso   1.000  C
  C119     1.0000 0.72070  0.54400  0.79990  Biso   1.000  C
  H91      1.0000 0.76880  0.55370  0.81680  Biso   1.000  H
  C120     1.0000 0.69310  0.55070  0.74830  Biso   1.000  C
  H92      1.0000 0.72450  0.56500  0.73020  Biso   1.000  H
  C121     1.0000 0.58390  0.50100  0.74680  Biso   1.000  C
  H93      1.0000 0.53960  0.48110  0.72870  Biso   1.000  H
  C122     1.0000 0.60920  0.49340  0.79860  Biso   1.000  C
  H94      1.0000 0.58200  0.46830  0.81600  Biso   1.000  H
  O48      1.0000 0.45620  0.96380  0.14580  Biso   1.000  O
  N5       1.0000 0.41930  0.96180  0.21590  Biso   1.000  N
  C123     1.0000 0.43710  0.93730  0.17880  Biso   1.000  C
  C124     1.0000 0.39230  0.92390  0.25120  Biso   1.000  C
  H95      1.0000 0.38990  0.87260  0.24340  Biso   1.000  H
  H96      1.0000 0.34510  0.94160  0.24890  Biso   1.000  H
  H97      1.0000 0.42350  0.93160  0.28530  Biso   1.000  H
  C125     1.0000 0.42360  0.03880  0.22110  Biso   1.000  C
  H98      1.0000 0.44220  0.05900  0.19520  Biso   1.000  H
  H99      1.0000 0.45490  0.05120  0.25430  Biso   1.000  H
  H100     1.0000 0.37650  0.05830  0.21720  Biso   1.000  H
  C126     1.0000 0.42400  0.85420  0.17300  Biso   1.000  C
  H101     1.0000 0.43790  0.83670  0.14420  Biso   1.000  H
  H102     1.0000 0.37390  0.84420  0.16770  Biso   1.000  H
  H103     1.0000 0.45190  0.82990  0.20360  Biso   1.000  H
  O49      1.0000 0.45040  0.11230  0.12460  Biso   1.000  O
  C127     1.0000 0.77020  0.64130  0.22140  Biso   1.000  C
  H104     1.0000 0.76140  0.60900  0.19390  Biso   1.000  H
  C128     1.0000 0.82270  0.62660  0.26580  Biso   1.000  C
  H105     1.0000 0.85020  0.58450  0.26810  Biso   1.000  H
  C129     1.0000 0.80230  0.73480  0.30100  Biso   1.000  C
  H106     1.0000 0.81420  0.76960  0.32700  Biso   1.000  H
  C130     1.0000 0.74920  0.74980  0.25640  Biso   1.000  C
  H107     1.0000 0.72540  0.79440  0.25340  Biso   1.000  H
  C131     1.0000 0.71060  0.55000  0.79400  Biso   1.000  C
  H108     1.0000 0.75760  0.56330  0.81110  Biso   1.000  H
  C132     1.0000 0.69270  0.56100  0.74250  Biso   1.000  C
  H109     1.0000 0.72240  0.58160  0.72510  Biso   1.000  H
  C133     1.0000 0.58260  0.55970  0.74980  Biso   1.000  C
  H110     1.0000 0.53790  0.58110  0.73500  Biso   1.000  H
  C134     1.0000 0.60800  0.54870  0.80120  Biso   1.000  C
  H111     1.0000 0.57780  0.55980  0.82090  Biso   1.000  H
  O50      1.0000 0.46300  0.81900  0.17070  Biso   1.000  O
  C135     1.0000 0.44190  0.78730  0.20190  Biso   1.000  C
  N6       1.0000 0.46630  0.72560  0.22170  Biso   1.000  N
  C136     1.0000 0.51640  0.68780  0.20220  Biso   1.000  C
  H112     1.0000 0.52720  0.71540  0.17640  Biso   1.000  H
  H113     1.0000 0.55890  0.67800  0.22850  Biso   1.000  H
  H114     1.0000 0.49480  0.64350  0.18830  Biso   1.000  H
  C137     1.0000 0.44310  0.68310  0.25730  Biso   1.000  C
  H115     1.0000 0.41150  0.71320  0.26830  Biso   1.000  H
  H116     1.0000 0.42000  0.63890  0.24470  Biso   1.000  H
  H117     1.0000 0.48410  0.67350  0.28490  Biso   1.000  H
  C138     1.0000 0.38780  0.82870  0.22310  Biso   1.000  C
  H118     1.0000 0.37610  0.87270  0.20480  Biso   1.000  H
  H119     1.0000 0.34570  0.80110  0.21910  Biso   1.000  H
  H120     1.0000 0.40910  0.83890  0.25800  Biso   1.000  H
  O51      1.0000 0.36130  0.02800  0.17120  Biso   1.000  O
  Sm7      1.0000 0.00549  0.51622  0.08639  Biso   1.000  Sm
  Sm8      1.0000 0.04372  0.93118  0.05867  Biso   1.000  Sm
  O52      1.0000 0.09229  0.42582  0.13319  Biso   1.000  O
  O53      1.0000 0.01184  0.38729  0.06518  Biso   1.000  O
  O54      1.0000 0.92350  0.60570  0.10940  Biso   1.000  O
  O55      1.0000 0.42100  0.20110  0.38497  Biso   1.000  O
  O56      1.0000 0.40820  0.08898  0.36129  Biso   1.000  O
  O57      1.0000 0.07900  0.05305  0.07454  Biso   1.000  O
  O58      1.0000 0.01203  0.12949  0.01853  Biso   1.000  O
  O59      1.0000 0.06183  0.00442  0.97141  Biso   1.000  O
  O60      1.0000 0.03190  0.03550  0.64344  Biso   1.000  O
  O61      1.0000 0.13630  0.06870  0.64119  Biso   1.000  O
  O62      1.0000 0.41708  0.99177  0.96256  Biso   1.000  O
  O63      1.0000 0.39005  0.00000  0.03308  Biso   1.000  O
  O64      1.0000 0.14492  0.94660  0.02878  Biso   1.000  O
  C139     1.0000 0.06470  0.37620  0.10347  Biso   1.000  C
  C140     1.0000 0.09400  0.30170  0.11386  Biso   1.000  C
  C141     1.0000 0.06490  0.24580  0.08163  Biso   1.000  C
  H121     1.0000 0.02820  0.25500  0.05160  Biso   1.000  H
  C142     1.0000 0.08940  0.17650  0.09318  Biso   1.000  C
  C143     1.0000 0.05630  0.11380  0.05913  Biso   1.000  C
  C144     1.0000 0.14320  0.16320  0.13728  Biso   1.000  C
  H122     1.0000 0.15950  0.11560  0.14520  Biso   1.000  H
  C145     1.0000 0.17370  0.21920  0.17032  Biso   1.000  C
  C146     1.0000 0.14840  0.28840  0.15751  Biso   1.000  C
  H123     1.0000 0.16860  0.32710  0.17900  Biso   1.000  H
  C147     1.0000 0.23040  0.20390  0.21759  Biso   1.000  C
  C148     1.0000 0.23820  0.13560  0.23860  Biso   1.000  C
  H124     1.0000 0.20660  0.09870  0.22250  Biso   1.000  H
  C149     1.0000 0.29100  0.12020  0.28240  Biso   1.000  C
  H125     1.0000 0.29600  0.07280  0.29530  Biso   1.000  H
  C150     1.0000 0.32690  0.24230  0.28860  Biso   1.000  C
  H126     1.0000 0.35620  0.27970  0.30640  Biso   1.000  H
  C151     1.0000 0.27530  0.25740  0.24420  Biso   1.000  C
  H127     1.0000 0.27040  0.30500  0.23150  Biso   1.000  H
  C152     1.0000 0.33630  0.17260  0.30763  Biso   1.000  C
  C153     1.0000 0.39260  0.15340  0.35472  Biso   1.000  C
  C154     1.0000 0.12430  0.98160  0.98888  Biso   1.000  C
  C155     1.0000 0.17590  0.99460  0.95997  Biso   1.000  C
  C156     1.0000 0.24740  0.98970  0.98485  Biso   1.000  C
  H128     1.0000 0.26300  0.98050  0.01990  Biso   1.000  H
  C157     1.0000 0.29620  0.99840  0.95837  Biso   1.000  C
  C158     1.0000 0.37300  0.99630  0.98618  Biso   1.000  C
  C159     1.0000 0.27290  0.00870  0.90694  Biso   1.000  C
  H129     1.0000 0.30620  0.01240  0.88870  Biso   1.000  H
  C160     1.0000 0.20040  0.01380  0.88113  Biso   1.000  C
  C161     1.0000 0.15280  0.00760  0.90888  Biso   1.000  C
  H130     1.0000 0.10380  0.01230  0.89250  Biso   1.000  H
  C162     1.0000 0.17470  0.02260  0.82561  Biso   1.000  C
  C163     1.0000 0.12430  0.03830  0.72105  Biso   1.000  C
  C164     1.0000 0.09620  0.04920  0.66528  Biso   1.000  C
  C165     1.0000 0.22070  0.04400  0.79990  Biso   1.000  C
  H131     1.0000 0.26880  0.05370  0.81680  Biso   1.000  H
  C166     1.0000 0.19310  0.05070  0.74830  Biso   1.000  C
  H132     1.0000 0.22450  0.06500  0.73020  Biso   1.000  H
  C167     1.0000 0.08390  0.00100  0.74680  Biso   1.000  C
  H133     1.0000 0.03960  0.98110  0.72870  Biso   1.000  H
  C168     1.0000 0.10920  0.99340  0.79860  Biso   1.000  C
  H134     1.0000 0.08200  0.96830  0.81600  Biso   1.000  H
  O65      1.0000 0.95620  0.46380  0.14580  Biso   1.000  O
  N7       1.0000 0.91930  0.46180  0.21590  Biso   1.000  N
  C169     1.0000 0.93710  0.43730  0.17880  Biso   1.000  C
  C170     1.0000 0.89230  0.42390  0.25120  Biso   1.000  C
  H135     1.0000 0.88990  0.37260  0.24340  Biso   1.000  H
  H136     1.0000 0.84510  0.44160  0.24890  Biso   1.000  H
  H137     1.0000 0.92350  0.43160  0.28530  Biso   1.000  H
  C171     1.0000 0.92360  0.53880  0.22110  Biso   1.000  C
  H138     1.0000 0.94220  0.55900  0.19520  Biso   1.000  H
  H139     1.0000 0.95490  0.55120  0.25430  Biso   1.000  H
  H140     1.0000 0.87650  0.55830  0.21720  Biso   1.000  H
  C172     1.0000 0.92400  0.35420  0.17300  Biso   1.000  C
  H141     1.0000 0.93790  0.33670  0.14420  Biso   1.000  H
  H142     1.0000 0.87390  0.34420  0.16770  Biso   1.000  H
  H143     1.0000 0.95190  0.32990  0.20360  Biso   1.000  H
  O66      1.0000 0.95040  0.61230  0.12460  Biso   1.000  O
  C173     1.0000 0.27020  0.14130  0.22140  Biso   1.000  C
  H144     1.0000 0.26140  0.10900  0.19390  Biso   1.000  H
  C174     1.0000 0.32270  0.12660  0.26580  Biso   1.000  C
  H145     1.0000 0.35020  0.08450  0.26810  Biso   1.000  H
  C175     1.0000 0.30230  0.23480  0.30100  Biso   1.000  C
  H146     1.0000 0.31420  0.26960  0.32700  Biso   1.000  H
  C176     1.0000 0.24920  0.24980  0.25640  Biso   1.000  C
  H147     1.0000 0.22540  0.29440  0.25340  Biso   1.000  H
  C177     1.0000 0.21060  0.05000  0.79400  Biso   1.000  C
  H148     1.0000 0.25760  0.06330  0.81110  Biso   1.000  H
  C178     1.0000 0.19270  0.06100  0.74250  Biso   1.000  C
  H149     1.0000 0.22240  0.08160  0.72510  Biso   1.000  H
  C179     1.0000 0.08260  0.05970  0.74980  Biso   1.000  C
  H150     1.0000 0.03790  0.08110  0.73500  Biso   1.000  H
  C180     1.0000 0.10800  0.04870  0.80120  Biso   1.000  C
  H151     1.0000 0.07780  0.05980  0.82090  Biso   1.000  H
  O67      1.0000 0.96300  0.31900  0.17070  Biso   1.000  O
  C181     1.0000 0.94190  0.28730  0.20190  Biso   1.000  C
  N8       1.0000 0.96630  0.22560  0.22170  Biso   1.000  N
  C182     1.0000 0.01640  0.18780  0.20220  Biso   1.000  C
  H152     1.0000 0.02720  0.21540  0.17640  Biso   1.000  H
  H153     1.0000 0.05890  0.17800  0.22850  Biso   1.000  H
  H154     1.0000 0.99480  0.14350  0.18830  Biso   1.000  H
  C183     1.0000 0.94310  0.18310  0.25730  Biso   1.000  C
  H155     1.0000 0.91150  0.21320  0.26830  Biso   1.000  H
  H156     1.0000 0.92000  0.13890  0.24470  Biso   1.000  H
  H157     1.0000 0.98410  0.17350  0.28490  Biso   1.000  H
  C184     1.0000 0.88780  0.32870  0.22310  Biso   1.000  C
  H158     1.0000 0.87610  0.37270  0.20480  Biso   1.000  H
  H159     1.0000 0.84570  0.30110  0.21910  Biso   1.000  H
  H160     1.0000 0.90910  0.33890  0.25800  Biso   1.000  H
  O68      1.0000 0.86130  0.52800  0.17120  Biso   1.000  O
  Sm9      1.0000 0.50549  0.98378  0.58639  Biso   1.000  Sm
  Sm10     1.0000 0.54372  0.56882  0.55867  Biso   1.000  Sm
  O69      1.0000 0.59229  0.07418  0.63319  Biso   1.000  O
  O70      1.0000 0.51184  0.11271  0.56518  Biso   1.000  O
  O71      1.0000 0.42350  0.89430  0.60940  Biso   1.000  O
  O72      1.0000 0.92100  0.29890  0.88497  Biso   1.000  O
  O73      1.0000 0.90820  0.41102  0.86129  Biso   1.000  O
  O74      1.0000 0.57900  0.44695  0.57454  Biso   1.000  O
  O75      1.0000 0.51203  0.37051  0.51853  Biso   1.000  O
  O76      1.0000 0.56183  0.49558  0.47141  Biso   1.000  O
  O77      1.0000 0.53190  0.46450  0.14344  Biso   1.000  O
  O78      1.0000 0.63630  0.43130  0.14119  Biso   1.000  O
  O79      1.0000 0.91708  0.50823  0.46256  Biso   1.000  O
  O80      1.0000 0.89005  0.50000  0.53308  Biso   1.000  O
  O81      1.0000 0.64492  0.55340  0.52878  Biso   1.000  O
  C185     1.0000 0.56470  0.12380  0.60347  Biso   1.000  C
  C186     1.0000 0.59400  0.19830  0.61386  Biso   1.000  C
  C187     1.0000 0.56490  0.25420  0.58163  Biso   1.000  C
  H161     1.0000 0.52820  0.24500  0.55160  Biso   1.000  H
  C188     1.0000 0.58940  0.32350  0.59318  Biso   1.000  C
  C189     1.0000 0.55630  0.38620  0.55913  Biso   1.000  C
  C190     1.0000 0.64320  0.33680  0.63728  Biso   1.000  C
  H162     1.0000 0.65950  0.38440  0.64520  Biso   1.000  H
  C191     1.0000 0.67370  0.28080  0.67032  Biso   1.000  C
  C192     1.0000 0.64840  0.21160  0.65751  Biso   1.000  C
  H163     1.0000 0.66860  0.17290  0.67900  Biso   1.000  H
  C193     1.0000 0.73040  0.29610  0.71759  Biso   1.000  C
  C194     1.0000 0.73820  0.36440  0.73860  Biso   1.000  C
  H164     1.0000 0.70660  0.40130  0.72250  Biso   1.000  H
  C195     1.0000 0.79100  0.37980  0.78240  Biso   1.000  C
  H165     1.0000 0.79600  0.42720  0.79530  Biso   1.000  H
  C196     1.0000 0.82690  0.25770  0.78860  Biso   1.000  C
  H166     1.0000 0.85620  0.22030  0.80640  Biso   1.000  H
  C197     1.0000 0.77530  0.24260  0.74420  Biso   1.000  C
  H167     1.0000 0.77040  0.19500  0.73150  Biso   1.000  H
  C198     1.0000 0.83630  0.32740  0.80763  Biso   1.000  C
  C199     1.0000 0.89260  0.34660  0.85472  Biso   1.000  C
  C200     1.0000 0.62430  0.51840  0.48888  Biso   1.000  C
  C201     1.0000 0.67590  0.50540  0.45997  Biso   1.000  C
  C202     1.0000 0.74740  0.51030  0.48485  Biso   1.000  C
  H168     1.0000 0.76300  0.51950  0.51990  Biso   1.000  H
  C203     1.0000 0.79620  0.50160  0.45837  Biso   1.000  C
  C204     1.0000 0.87300  0.50370  0.48618  Biso   1.000  C
  C205     1.0000 0.77290  0.49130  0.40694  Biso   1.000  C
  H169     1.0000 0.80620  0.48760  0.38870  Biso   1.000  H
  C206     1.0000 0.70040  0.48620  0.38113  Biso   1.000  C
  C207     1.0000 0.65280  0.49240  0.40888  Biso   1.000  C
  H170     1.0000 0.60380  0.48770  0.39250  Biso   1.000  H
  C208     1.0000 0.67470  0.47740  0.32561  Biso   1.000  C
  C209     1.0000 0.62430  0.46170  0.22105  Biso   1.000  C
  C210     1.0000 0.59620  0.45080  0.16528  Biso   1.000  C
  C211     1.0000 0.72070  0.45600  0.29990  Biso   1.000  C
  H171     1.0000 0.76880  0.44630  0.31680  Biso   1.000  H
  C212     1.0000 0.69310  0.44930  0.24830  Biso   1.000  C
  H172     1.0000 0.72450  0.43500  0.23020  Biso   1.000  H
  C213     1.0000 0.58390  0.49900  0.24680  Biso   1.000  C
  H173     1.0000 0.53960  0.51890  0.22870  Biso   1.000  H
  C214     1.0000 0.60920  0.50660  0.29860  Biso   1.000  C
  H174     1.0000 0.58200  0.53170  0.31600  Biso   1.000  H
  O82      1.0000 0.45620  0.03620  0.64580  Biso   1.000  O
  N9       1.0000 0.41930  0.03820  0.71590  Biso   1.000  N
  C215     1.0000 0.43710  0.06270  0.67880  Biso   1.000  C
  C216     1.0000 0.39230  0.07610  0.75120  Biso   1.000  C
  H175     1.0000 0.38990  0.12740  0.74340  Biso   1.000  H
  H176     1.0000 0.34510  0.05840  0.74890  Biso   1.000  H
  H177     1.0000 0.42350  0.06840  0.78530  Biso   1.000  H
  C217     1.0000 0.42360  0.96120  0.72110  Biso   1.000  C
  H178     1.0000 0.44220  0.94100  0.69520  Biso   1.000  H
  H179     1.0000 0.45490  0.94880  0.75430  Biso   1.000  H
  H180     1.0000 0.37650  0.94170  0.71720  Biso   1.000  H
  C218     1.0000 0.42400  0.14580  0.67300  Biso   1.000  C
  H181     1.0000 0.43790  0.16330  0.64420  Biso   1.000  H
  H182     1.0000 0.37390  0.15580  0.66770  Biso   1.000  H
  H183     1.0000 0.45190  0.17010  0.70360  Biso   1.000  H
  O83      1.0000 0.45040  0.88770  0.62460  Biso   1.000  O
  C219     1.0000 0.77020  0.35870  0.72140  Biso   1.000  C
  H184     1.0000 0.76140  0.39100  0.69390  Biso   1.000  H
  C220     1.0000 0.82270  0.37340  0.76580  Biso   1.000  C
  H185     1.0000 0.85020  0.41550  0.76810  Biso   1.000  H
  C221     1.0000 0.80230  0.26520  0.80100  Biso   1.000  C
  H186     1.0000 0.81420  0.23040  0.82700  Biso   1.000  H
  C222     1.0000 0.74920  0.25020  0.75640  Biso   1.000  C
  H187     1.0000 0.72540  0.20560  0.75340  Biso   1.000  H
  C223     1.0000 0.71060  0.45000  0.29400  Biso   1.000  C
  H188     1.0000 0.75760  0.43670  0.31110  Biso   1.000  H
  C224     1.0000 0.69270  0.43900  0.24250  Biso   1.000  C
  H189     1.0000 0.72240  0.41840  0.22510  Biso   1.000  H
  C225     1.0000 0.58260  0.44030  0.24980  Biso   1.000  C
  H190     1.0000 0.53790  0.41890  0.23500  Biso   1.000  H
  C226     1.0000 0.60800  0.45130  0.30120  Biso   1.000  C
  H191     1.0000 0.57780  0.44020  0.32090  Biso   1.000  H
  O84      1.0000 0.46300  0.18100  0.67070  Biso   1.000  O
  C227     1.0000 0.44190  0.21270  0.70190  Biso   1.000  C
  N10      1.0000 0.46630  0.27440  0.72170  Biso   1.000  N
  C228     1.0000 0.51640  0.31220  0.70220  Biso   1.000  C
  H192     1.0000 0.52720  0.28460  0.67640  Biso   1.000  H
  H193     1.0000 0.55890  0.32200  0.72850  Biso   1.000  H
  H194     1.0000 0.49480  0.35650  0.68830  Biso   1.000  H
  C229     1.0000 0.44310  0.31690  0.75730  Biso   1.000  C
  H195     1.0000 0.41150  0.28680  0.76830  Biso   1.000  H
  H196     1.0000 0.42000  0.36110  0.74470  Biso   1.000  H
  H197     1.0000 0.48410  0.32650  0.78490  Biso   1.000  H
  C230     1.0000 0.38780  0.17130  0.72310  Biso   1.000  C
  H198     1.0000 0.37610  0.12730  0.70480  Biso   1.000  H
  H199     1.0000 0.34570  0.19890  0.71910  Biso   1.000  H
  H200     1.0000 0.40910  0.16110  0.75800  Biso   1.000  H
  O85      1.0000 0.36130  0.97200  0.67120  Biso   1.000  O
  Sm11     1.0000 0.00549  0.48378  0.58639  Biso   1.000  Sm
  Sm12     1.0000 0.04372  0.06882  0.55867  Biso   1.000  Sm
  O86      1.0000 0.09229  0.57418  0.63319  Biso   1.000  O
  O87      1.0000 0.01184  0.61271  0.56518  Biso   1.000  O
  O88      1.0000 0.92350  0.39430  0.60940  Biso   1.000  O
  O89      1.0000 0.42100  0.79890  0.88497  Biso   1.000  O
  O90      1.0000 0.40820  0.91102  0.86129  Biso   1.000  O
  O91      1.0000 0.07900  0.94695  0.57454  Biso   1.000  O
  O92      1.0000 0.01203  0.87051  0.51853  Biso   1.000  O
  O93      1.0000 0.06183  0.99558  0.47141  Biso   1.000  O
  O94      1.0000 0.03190  0.96450  0.14344  Biso   1.000  O
  O95      1.0000 0.13630  0.93130  0.14119  Biso   1.000  O
  O96      1.0000 0.41708  0.00823  0.46256  Biso   1.000  O
  O97      1.0000 0.39005  0.00000  0.53308  Biso   1.000  O
  O98      1.0000 0.14492  0.05340  0.52878  Biso   1.000  O
  C231     1.0000 0.06470  0.62380  0.60347  Biso   1.000  C
  C232     1.0000 0.09400  0.69830  0.61386  Biso   1.000  C
  C233     1.0000 0.06490  0.75420  0.58163  Biso   1.000  C
  H201     1.0000 0.02820  0.74500  0.55160  Biso   1.000  H
  C234     1.0000 0.08940  0.82350  0.59318  Biso   1.000  C
  C235     1.0000 0.05630  0.88620  0.55913  Biso   1.000  C
  C236     1.0000 0.14320  0.83680  0.63728  Biso   1.000  C
  H202     1.0000 0.15950  0.88440  0.64520  Biso   1.000  H
  C237     1.0000 0.17370  0.78080  0.67032  Biso   1.000  C
  C238     1.0000 0.14840  0.71160  0.65751  Biso   1.000  C
  H203     1.0000 0.16860  0.67290  0.67900  Biso   1.000  H
  C239     1.0000 0.23040  0.79610  0.71759  Biso   1.000  C
  C240     1.0000 0.23820  0.86440  0.73860  Biso   1.000  C
  H204     1.0000 0.20660  0.90130  0.72250  Biso   1.000  H
  C241     1.0000 0.29100  0.87980  0.78240  Biso   1.000  C
  H205     1.0000 0.29600  0.92720  0.79530  Biso   1.000  H
  C242     1.0000 0.32690  0.75770  0.78860  Biso   1.000  C
  H206     1.0000 0.35620  0.72030  0.80640  Biso   1.000  H
  C243     1.0000 0.27530  0.74260  0.74420  Biso   1.000  C
  H207     1.0000 0.27040  0.69500  0.73150  Biso   1.000  H
  C244     1.0000 0.33630  0.82740  0.80763  Biso   1.000  C
  C245     1.0000 0.39260  0.84660  0.85472  Biso   1.000  C
  C246     1.0000 0.12430  0.01840  0.48888  Biso   1.000  C
  C247     1.0000 0.17590  0.00540  0.45997  Biso   1.000  C
  C248     1.0000 0.24740  0.01030  0.48485  Biso   1.000  C
  H208     1.0000 0.26300  0.01950  0.51990  Biso   1.000  H
  C249     1.0000 0.29620  0.00160  0.45837  Biso   1.000  C
  C250     1.0000 0.37300  0.00370  0.48618  Biso   1.000  C
  C251     1.0000 0.27290  0.99130  0.40694  Biso   1.000  C
  H209     1.0000 0.30620  0.98760  0.38870  Biso   1.000  H
  C252     1.0000 0.20040  0.98620  0.38113  Biso   1.000  C
  C253     1.0000 0.15280  0.99240  0.40888  Biso   1.000  C
  H210     1.0000 0.10380  0.98770  0.39250  Biso   1.000  H
  C254     1.0000 0.17470  0.97740  0.32561  Biso   1.000  C
  C255     1.0000 0.12430  0.96170  0.22105  Biso   1.000  C
  C256     1.0000 0.09620  0.95080  0.16528  Biso   1.000  C
  C257     1.0000 0.22070  0.95600  0.29990  Biso   1.000  C
  H211     1.0000 0.26880  0.94630  0.31680  Biso   1.000  H
  C258     1.0000 0.19310  0.94930  0.24830  Biso   1.000  C
  H212     1.0000 0.22450  0.93500  0.23020  Biso   1.000  H
  C259     1.0000 0.08390  0.99900  0.24680  Biso   1.000  C
  H213     1.0000 0.03960  0.01890  0.22870  Biso   1.000  H
  C260     1.0000 0.10920  0.00660  0.29860  Biso   1.000  C
  H214     1.0000 0.08200  0.03170  0.31600  Biso   1.000  H
  O99      1.0000 0.95620  0.53620  0.64580  Biso   1.000  O
  N11      1.0000 0.91930  0.53820  0.71590  Biso   1.000  N
  C261     1.0000 0.93710  0.56270  0.67880  Biso   1.000  C
  C262     1.0000 0.89230  0.57610  0.75120  Biso   1.000  C
  H215     1.0000 0.88990  0.62740  0.74340  Biso   1.000  H
  H216     1.0000 0.84510  0.55840  0.74890  Biso   1.000  H
  H217     1.0000 0.92350  0.56840  0.78530  Biso   1.000  H
  C263     1.0000 0.92360  0.46120  0.72110  Biso   1.000  C
  H218     1.0000 0.94220  0.44100  0.69520  Biso   1.000  H
  H219     1.0000 0.95490  0.44880  0.75430  Biso   1.000  H
  H220     1.0000 0.87650  0.44170  0.71720  Biso   1.000  H
  C264     1.0000 0.92400  0.64580  0.67300  Biso   1.000  C
  H221     1.0000 0.93790  0.66330  0.64420  Biso   1.000  H
  H222     1.0000 0.87390  0.65580  0.66770  Biso   1.000  H
  H223     1.0000 0.95190  0.67010  0.70360  Biso   1.000  H
  O100     1.0000 0.95040  0.38770  0.62460  Biso   1.000  O
  C265     1.0000 0.27020  0.85870  0.72140  Biso   1.000  C
  H224     1.0000 0.26140  0.89100  0.69390  Biso   1.000  H
  C266     1.0000 0.32270  0.87340  0.76580  Biso   1.000  C
  H225     1.0000 0.35020  0.91550  0.76810  Biso   1.000  H
  C267     1.0000 0.30230  0.76520  0.80100  Biso   1.000  C
  H226     1.0000 0.31420  0.73040  0.82700  Biso   1.000  H
  C268     1.0000 0.24920  0.75020  0.75640  Biso   1.000  C
  H227     1.0000 0.22540  0.70560  0.75340  Biso   1.000  H
  C269     1.0000 0.21060  0.95000  0.29400  Biso   1.000  C
  H228     1.0000 0.25760  0.93670  0.31110  Biso   1.000  H
  C270     1.0000 0.19270  0.93900  0.24250  Biso   1.000  C
  H229     1.0000 0.22240  0.91840  0.22510  Biso   1.000  H
  C271     1.0000 0.08260  0.94030  0.24980  Biso   1.000  C
  H230     1.0000 0.03790  0.91890  0.23500  Biso   1.000  H
  C272     1.0000 0.10800  0.95130  0.30120  Biso   1.000  C
  H231     1.0000 0.07780  0.94020  0.32090  Biso   1.000  H
  O101     1.0000 0.96300  0.68100  0.67070  Biso   1.000  O
  C273     1.0000 0.94190  0.71270  0.70190  Biso   1.000  C
  N12      1.0000 0.96630  0.77440  0.72170  Biso   1.000  N
  C274     1.0000 0.01640  0.81220  0.70220  Biso   1.000  C
  H232     1.0000 0.02720  0.78460  0.67640  Biso   1.000  H
  H233     1.0000 0.05890  0.82200  0.72850  Biso   1.000  H
  H234     1.0000 0.99480  0.85650  0.68830  Biso   1.000  H
  C275     1.0000 0.94310  0.81690  0.75730  Biso   1.000  C
  H235     1.0000 0.91150  0.78680  0.76830  Biso   1.000  H
  H236     1.0000 0.92000  0.86110  0.74470  Biso   1.000  H
  H237     1.0000 0.98410  0.82650  0.78490  Biso   1.000  H
  C276     1.0000 0.88780  0.67130  0.72310  Biso   1.000  C
  H238     1.0000 0.87610  0.62730  0.70480  Biso   1.000  H
  H239     1.0000 0.84570  0.69890  0.71910  Biso   1.000  H
  H240     1.0000 0.90910  0.66110  0.75800  Biso   1.000  H
  O102     1.0000 0.86130  0.47200  0.67120  Biso   1.000  O
  Sm13     1.0000 0.49451  0.98378  0.91361  Biso   1.000  Sm
  Sm14     1.0000 0.45628  0.56882  0.94133  Biso   1.000  Sm
  O103     1.0000 0.40771  0.07418  0.86681  Biso   1.000  O
  O104     1.0000 0.48816  0.11271  0.93482  Biso   1.000  O
  O105     1.0000 0.57650  0.89430  0.89060  Biso   1.000  O
  O106     1.0000 0.07900  0.29890  0.61503  Biso   1.000  O
  O107     1.0000 0.09180  0.41102  0.63871  Biso   1.000  O
  O108     1.0000 0.42100  0.44695  0.92546  Biso   1.000  O
  O109     1.0000 0.48797  0.37051  0.98147  Biso   1.000  O
  O110     1.0000 0.43817  0.49558  0.02859  Biso   1.000  O
  O111     1.0000 0.46810  0.46450  0.35656  Biso   1.000  O
  O112     1.0000 0.36370  0.43130  0.35881  Biso   1.000  O
  O113     1.0000 0.08292  0.50823  0.03744  Biso   1.000  O
  O114     1.0000 0.10995  0.50000  0.96692  Biso   1.000  O
  O115     1.0000 0.35508  0.55340  0.97122  Biso   1.000  O
  C277     1.0000 0.43530  0.12380  0.89653  Biso   1.000  C
  C278     1.0000 0.40600  0.19830  0.88614  Biso   1.000  C
  C279     1.0000 0.43510  0.25420  0.91837  Biso   1.000  C
  H241     1.0000 0.47180  0.24500  0.94840  Biso   1.000  H
  C280     1.0000 0.41060  0.32350  0.90682  Biso   1.000  C
  C281     1.0000 0.44370  0.38620  0.94087  Biso   1.000  C
  C282     1.0000 0.35680  0.33680  0.86272  Biso   1.000  C
  H242     1.0000 0.34050  0.38440  0.85480  Biso   1.000  H
  C283     1.0000 0.32630  0.28080  0.82968  Biso   1.000  C
  C284     1.0000 0.35160  0.21160  0.84249  Biso   1.000  C
  H243     1.0000 0.33140  0.17290  0.82100  Biso   1.000  H
  C285     1.0000 0.26960  0.29610  0.78241  Biso   1.000  C
  C286     1.0000 0.26180  0.36440  0.76140  Biso   1.000  C
  H244     1.0000 0.29340  0.40130  0.77750  Biso   1.000  H
  C287     1.0000 0.20900  0.37980  0.71760  Biso   1.000  C
  H245     1.0000 0.20400  0.42720  0.70470  Biso   1.000  H
  C288     1.0000 0.17310  0.25770  0.71140  Biso   1.000  C
  H246     1.0000 0.14380  0.22030  0.69360  Biso   1.000  H
  C289     1.0000 0.22470  0.24260  0.75580  Biso   1.000  C
  H247     1.0000 0.22960  0.19500  0.76850  Biso   1.000  H
  C290     1.0000 0.16370  0.32740  0.69237  Biso   1.000  C
  C291     1.0000 0.10740  0.34660  0.64528  Biso   1.000  C
  C292     1.0000 0.37570  0.51840  0.01112  Biso   1.000  C
  C293     1.0000 0.32410  0.50540  0.04003  Biso   1.000  C
  C294     1.0000 0.25260  0.51030  0.01515  Biso   1.000  C
  H248     1.0000 0.23700  0.51950  0.98010  Biso   1.000  H
  C295     1.0000 0.20380  0.50160  0.04163  Biso   1.000  C
  C296     1.0000 0.12700  0.50370  0.01382  Biso   1.000  C
  C297     1.0000 0.22710  0.49130  0.09306  Biso   1.000  C
  H249     1.0000 0.19380  0.48760  0.11130  Biso   1.000  H
  C298     1.0000 0.29960  0.48620  0.11887  Biso   1.000  C
  C299     1.0000 0.34720  0.49240  0.09112  Biso   1.000  C
  H250     1.0000 0.39620  0.48770  0.10750  Biso   1.000  H
  C300     1.0000 0.32530  0.47740  0.17439  Biso   1.000  C
  C301     1.0000 0.37570  0.46170  0.27895  Biso   1.000  C
  C302     1.0000 0.40380  0.45080  0.33472  Biso   1.000  C
  C303     1.0000 0.27930  0.45600  0.20010  Biso   1.000  C
  H251     1.0000 0.23120  0.44630  0.18320  Biso   1.000  H
  C304     1.0000 0.30690  0.44930  0.25170  Biso   1.000  C
  H252     1.0000 0.27550  0.43500  0.26980  Biso   1.000  H
  C305     1.0000 0.41610  0.49900  0.25320  Biso   1.000  C
  H253     1.0000 0.46040  0.51890  0.27130  Biso   1.000  H
  C306     1.0000 0.39080  0.50660  0.20140  Biso   1.000  C
  H254     1.0000 0.41800  0.53170  0.18400  Biso   1.000  H
  O116     1.0000 0.54380  0.03620  0.85420  Biso   1.000  O
  N13      1.0000 0.58070  0.03820  0.78410  Biso   1.000  N
  C307     1.0000 0.56290  0.06270  0.82120  Biso   1.000  C
  C308     1.0000 0.60770  0.07610  0.74880  Biso   1.000  C
  H255     1.0000 0.61010  0.12740  0.75660  Biso   1.000  H
  H256     1.0000 0.65490  0.05840  0.75110  Biso   1.000  H
  H257     1.0000 0.57650  0.06840  0.71470  Biso   1.000  H
  C309     1.0000 0.57640  0.96120  0.77890  Biso   1.000  C
  H258     1.0000 0.55780  0.94100  0.80480  Biso   1.000  H
  H259     1.0000 0.54510  0.94880  0.74570  Biso   1.000  H
  H260     1.0000 0.62350  0.94170  0.78280  Biso   1.000  H
  C310     1.0000 0.57600  0.14580  0.82700  Biso   1.000  C
  H261     1.0000 0.56210  0.16330  0.85580  Biso   1.000  H
  H262     1.0000 0.62610  0.15580  0.83230  Biso   1.000  H
  H263     1.0000 0.54810  0.17010  0.79640  Biso   1.000  H
  O117     1.0000 0.54960  0.88770  0.87540  Biso   1.000  O
  C311     1.0000 0.22980  0.35870  0.77860  Biso   1.000  C
  H264     1.0000 0.23860  0.39100  0.80610  Biso   1.000  H
  C312     1.0000 0.17730  0.37340  0.73420  Biso   1.000  C
  H265     1.0000 0.14980  0.41550  0.73190  Biso   1.000  H
  C313     1.0000 0.19770  0.26520  0.69900  Biso   1.000  C
  H266     1.0000 0.18580  0.23040  0.67300  Biso   1.000  H
  C314     1.0000 0.25080  0.25020  0.74360  Biso   1.000  C
  H267     1.0000 0.27460  0.20560  0.74660  Biso   1.000  H
  C315     1.0000 0.28940  0.45000  0.20600  Biso   1.000  C
  H268     1.0000 0.24240  0.43670  0.18890  Biso   1.000  H
  C316     1.0000 0.30730  0.43900  0.25750  Biso   1.000  C
  H269     1.0000 0.27760  0.41840  0.27490  Biso   1.000  H
  C317     1.0000 0.41740  0.44030  0.25020  Biso   1.000  C
  H270     1.0000 0.46210  0.41890  0.26500  Biso   1.000  H
  C318     1.0000 0.39200  0.45130  0.19880  Biso   1.000  C
  H271     1.0000 0.42220  0.44020  0.17910  Biso   1.000  H
  O118     1.0000 0.53700  0.18100  0.82930  Biso   1.000  O
  C319     1.0000 0.55810  0.21270  0.79810  Biso   1.000  C
  N14      1.0000 0.53370  0.27440  0.77830  Biso   1.000  N
  C320     1.0000 0.48360  0.31220  0.79780  Biso   1.000  C
  H272     1.0000 0.47280  0.28460  0.82360  Biso   1.000  H
  H273     1.0000 0.44110  0.32200  0.77150  Biso   1.000  H
  H274     1.0000 0.50520  0.35650  0.81170  Biso   1.000  H
  C321     1.0000 0.55690  0.31690  0.74270  Biso   1.000  C
  H275     1.0000 0.58850  0.28680  0.73170  Biso   1.000  H
  H276     1.0000 0.58000  0.36110  0.75530  Biso   1.000  H
  H277     1.0000 0.51590  0.32650  0.71510  Biso   1.000  H
  C322     1.0000 0.61220  0.17130  0.77690  Biso   1.000  C
  H278     1.0000 0.62390  0.12730  0.79520  Biso   1.000  H
  H279     1.0000 0.65430  0.19890  0.78090  Biso   1.000  H
  H280     1.0000 0.59090  0.16110  0.74200  Biso   1.000  H
  O119     1.0000 0.63870  0.97200  0.82880  Biso   1.000  O
  Sm15     1.0000 0.99451  0.48378  0.91361  Biso   1.000  Sm
  Sm16     1.0000 0.95628  0.06882  0.94133  Biso   1.000  Sm
  O120     1.0000 0.90771  0.57418  0.86681  Biso   1.000  O
  O121     1.0000 0.98816  0.61271  0.93482  Biso   1.000  O
  O122     1.0000 0.07650  0.39430  0.89060  Biso   1.000  O
  O123     1.0000 0.57900  0.79890  0.61503  Biso   1.000  O
  O124     1.0000 0.59180  0.91102  0.63871  Biso   1.000  O
  O125     1.0000 0.92100  0.94695  0.92546  Biso   1.000  O
  O126     1.0000 0.98797  0.87051  0.98147  Biso   1.000  O
  O127     1.0000 0.93817  0.99558  0.02859  Biso   1.000  O
  O128     1.0000 0.96810  0.96450  0.35656  Biso   1.000  O
  O129     1.0000 0.86370  0.93130  0.35881  Biso   1.000  O
  O130     1.0000 0.58292  0.00823  0.03744  Biso   1.000  O
  O131     1.0000 0.60995  0.00000  0.96692  Biso   1.000  O
  O132     1.0000 0.85508  0.05340  0.97122  Biso   1.000  O
  C323     1.0000 0.93530  0.62380  0.89653  Biso   1.000  C
  C324     1.0000 0.90600  0.69830  0.88614  Biso   1.000  C
  C325     1.0000 0.93510  0.75420  0.91837  Biso   1.000  C
  H281     1.0000 0.97180  0.74500  0.94840  Biso   1.000  H
  C326     1.0000 0.91060  0.82350  0.90682  Biso   1.000  C
  C327     1.0000 0.94370  0.88620  0.94087  Biso   1.000  C
  C328     1.0000 0.85680  0.83680  0.86272  Biso   1.000  C
  H282     1.0000 0.84050  0.88440  0.85480  Biso   1.000  H
  C329     1.0000 0.82630  0.78080  0.82968  Biso   1.000  C
  C330     1.0000 0.85160  0.71160  0.84249  Biso   1.000  C
  H283     1.0000 0.83140  0.67290  0.82100  Biso   1.000  H
  C331     1.0000 0.76960  0.79610  0.78241  Biso   1.000  C
  C332     1.0000 0.76180  0.86440  0.76140  Biso   1.000  C
  H284     1.0000 0.79340  0.90130  0.77750  Biso   1.000  H
  C333     1.0000 0.70900  0.87980  0.71760  Biso   1.000  C
  H285     1.0000 0.70400  0.92720  0.70470  Biso   1.000  H
  C334     1.0000 0.67310  0.75770  0.71140  Biso   1.000  C
  H286     1.0000 0.64380  0.72030  0.69360  Biso   1.000  H
  C335     1.0000 0.72470  0.74260  0.75580  Biso   1.000  C
  H287     1.0000 0.72960  0.69500  0.76850  Biso   1.000  H
  C336     1.0000 0.66370  0.82740  0.69237  Biso   1.000  C
  C337     1.0000 0.60740  0.84660  0.64528  Biso   1.000  C
  C338     1.0000 0.87570  0.01840  0.01112  Biso   1.000  C
  C339     1.0000 0.82410  0.00540  0.04003  Biso   1.000  C
  C340     1.0000 0.75260  0.01030  0.01515  Biso   1.000  C
  H288     1.0000 0.73700  0.01950  0.98010  Biso   1.000  H
  C341     1.0000 0.70380  0.00160  0.04163  Biso   1.000  C
  C342     1.0000 0.62700  0.00370  0.01382  Biso   1.000  C
  C343     1.0000 0.72710  0.99130  0.09306  Biso   1.000  C
  H289     1.0000 0.69380  0.98760  0.11130  Biso   1.000  H
  C344     1.0000 0.79960  0.98620  0.11887  Biso   1.000  C
  C345     1.0000 0.84720  0.99240  0.09112  Biso   1.000  C
  H290     1.0000 0.89620  0.98770  0.10750  Biso   1.000  H
  C346     1.0000 0.82530  0.97740  0.17439  Biso   1.000  C
  C347     1.0000 0.87570  0.96170  0.27895  Biso   1.000  C
  C348     1.0000 0.90380  0.95080  0.33472  Biso   1.000  C
  C349     1.0000 0.77930  0.95600  0.20010  Biso   1.000  C
  H291     1.0000 0.73120  0.94630  0.18320  Biso   1.000  H
  C350     1.0000 0.80690  0.94930  0.25170  Biso   1.000  C
  H292     1.0000 0.77550  0.93500  0.26980  Biso   1.000  H
  C351     1.0000 0.91610  0.99900  0.25320  Biso   1.000  C
  H293     1.0000 0.96040  0.01890  0.27130  Biso   1.000  H
  C352     1.0000 0.89080  0.00660  0.20140  Biso   1.000  C
  H294     1.0000 0.91800  0.03170  0.18400  Biso   1.000  H
  O133     1.0000 0.04380  0.53620  0.85420  Biso   1.000  O
  N15      1.0000 0.08070  0.53820  0.78410  Biso   1.000  N
  C353     1.0000 0.06290  0.56270  0.82120  Biso   1.000  C
  C354     1.0000 0.10770  0.57610  0.74880  Biso   1.000  C
  H295     1.0000 0.11010  0.62740  0.75660  Biso   1.000  H
  H296     1.0000 0.15490  0.55840  0.75110  Biso   1.000  H
  H297     1.0000 0.07650  0.56840  0.71470  Biso   1.000  H
  C355     1.0000 0.07640  0.46120  0.77890  Biso   1.000  C
  H298     1.0000 0.05780  0.44100  0.80480  Biso   1.000  H
  H299     1.0000 0.04510  0.44880  0.74570  Biso   1.000  H
  H300     1.0000 0.12350  0.44170  0.78280  Biso   1.000  H
  C356     1.0000 0.07600  0.64580  0.82700  Biso   1.000  C
  H301     1.0000 0.06210  0.66330  0.85580  Biso   1.000  H
  H302     1.0000 0.12610  0.65580  0.83230  Biso   1.000  H
  H303     1.0000 0.04810  0.67010  0.79640  Biso   1.000  H
  O134     1.0000 0.04960  0.38770  0.87540  Biso   1.000  O
  C357     1.0000 0.72980  0.85870  0.77860  Biso   1.000  C
  H304     1.0000 0.73860  0.89100  0.80610  Biso   1.000  H
  C358     1.0000 0.67730  0.87340  0.73420  Biso   1.000  C
  H305     1.0000 0.64980  0.91550  0.73190  Biso   1.000  H
  C359     1.0000 0.69770  0.76520  0.69900  Biso   1.000  C
  H306     1.0000 0.68580  0.73040  0.67300  Biso   1.000  H
  C360     1.0000 0.75080  0.75020  0.74360  Biso   1.000  C
  H307     1.0000 0.77460  0.70560  0.74660  Biso   1.000  H
  C361     1.0000 0.78940  0.95000  0.20600  Biso   1.000  C
  H308     1.0000 0.74240  0.93670  0.18890  Biso   1.000  H
  C362     1.0000 0.80730  0.93900  0.25750  Biso   1.000  C
  H309     1.0000 0.77760  0.91840  0.27490  Biso   1.000  H
  C363     1.0000 0.91740  0.94030  0.25020  Biso   1.000  C
  H310     1.0000 0.96210  0.91890  0.26500  Biso   1.000  H
  C364     1.0000 0.89200  0.95130  0.19880  Biso   1.000  C
  H311     1.0000 0.92220  0.94020  0.17910  Biso   1.000  H
  O135     1.0000 0.03700  0.68100  0.82930  Biso   1.000  O
  C365     1.0000 0.05810  0.71270  0.79810  Biso   1.000  C
  N16      1.0000 0.03370  0.77440  0.77830  Biso   1.000  N
  C366     1.0000 0.98360  0.81220  0.79780  Biso   1.000  C
  H312     1.0000 0.97280  0.78460  0.82360  Biso   1.000  H
  H313     1.0000 0.94110  0.82200  0.77150  Biso   1.000  H
  H314     1.0000 0.00520  0.85650  0.81170  Biso   1.000  H
  C367     1.0000 0.05690  0.81690  0.74270  Biso   1.000  C
  H315     1.0000 0.08850  0.78680  0.73170  Biso   1.000  H
  H316     1.0000 0.08000  0.86110  0.75530  Biso   1.000  H
  H317     1.0000 0.01590  0.82650  0.71510  Biso   1.000  H
  C368     1.0000 0.11220  0.67130  0.77690  Biso   1.000  C
  H318     1.0000 0.12390  0.62730  0.79520  Biso   1.000  H
  H319     1.0000 0.15430  0.69890  0.78090  Biso   1.000  H
  H320     1.0000 0.09090  0.66110  0.74200  Biso   1.000  H
  O136     1.0000 0.13870  0.47200  0.82880  Biso   1.000  O
