data_image0
_cell_length_a       19.7427
_cell_length_b       18.433
_cell_length_c       27.8981
_cell_angle_alpha    90
_cell_angle_beta     107.333
_cell_angle_gamma    90

_symmetry_space_group_name_H-M    "P 1"
_symmetry_int_tables_number       1

loop_
  _symmetry_equiv_pos_as_xyz
  'x, y, z'

loop_
  _atom_site_label
  _atom_site_occupancy
  _atom_site_fract_x
  _atom_site_fract_y
  _atom_site_fract_z
  _atom_site_thermal_displace_type
  _atom_site_B_iso_or_equiv
  _atom_site_type_symbol
  Tb1      1.0000 0.49663  0.01839  0.41330  Biso   1.000  Tb
  Tb2      1.0000 0.45337  0.42854  0.44171  Biso   1.000  Tb
  O1       1.0000 0.41180  0.92800  0.36643  Biso   1.000  O
  O2       1.0000 0.49080  0.88960  0.43520  Biso   1.000  O
  O3       1.0000 0.58170  0.11000  0.39580  Biso   1.000  O
  O4       1.0000 0.08900  0.69900  0.11110  Biso   1.000  O
  O5       1.0000 0.08690  0.58970  0.14010  Biso   1.000  O
  O6       1.0000 0.42670  0.54990  0.42500  Biso   1.000  O
  O7       1.0000 0.49450  0.62720  0.48070  Biso   1.000  O
  O8       1.0000 0.43770  0.51620  0.53140  Biso   1.000  O
  O9       1.0000 0.46720  0.54870  0.85770  Biso   1.000  O
  O10      1.0000 0.36010  0.56830  0.86090  Biso   1.000  O
  O11      1.0000 0.08260  0.48860  0.54090  Biso   1.000  O
  O12      1.0000 0.10710  0.50180  0.46940  Biso   1.000  O
  O13      1.0000 0.35710  0.45270  0.47390  Biso   1.000  O
  C1       1.0000 0.43880  0.87760  0.39670  Biso   1.000  C
  C2       1.0000 0.40910  0.80220  0.38610  Biso   1.000  C
  C3       1.0000 0.43850  0.74500  0.41870  Biso   1.000  C
  H1       1.0000 0.47530  0.75470  0.44880  Biso   1.000  H
  C4       1.0000 0.41490  0.67470  0.40750  Biso   1.000  C
  C5       1.0000 0.44870  0.61300  0.44040  Biso   1.000  C
  C6       1.0000 0.35840  0.66140  0.36280  Biso   1.000  C
  H2       1.0000 0.34210  0.61320  0.35450  Biso   1.000  H
  C7       1.0000 0.32700  0.71810  0.33120  Biso   1.000  C
  C8       1.0000 0.35320  0.78820  0.34350  Biso   1.000  C
  H3       1.0000 0.33220  0.82740  0.32200  Biso   1.000  H
  C9       1.0000 0.26910  0.70380  0.28350  Biso   1.000  C
  C10      1.0000 0.25780  0.63460  0.26450  Biso   1.000  C
  H4       1.0000 0.28570  0.59600  0.28270  Biso   1.000  H
  C11      1.0000 0.20670  0.62000  0.21940  Biso   1.000  C
  H5       1.0000 0.20140  0.57180  0.20680  Biso   1.000  H
  C12      1.0000 0.16790  0.74250  0.21120  Biso   1.000  C
  H6       1.0000 0.13580  0.77880  0.19390  Biso   1.000  H
  C13      1.0000 0.22070  0.75850  0.25620  Biso   1.000  C
  H7       1.0000 0.22460  0.80660  0.26900  Biso   1.000  H
  C14      1.0000 0.16380  0.67300  0.19270  Biso   1.000  C
  C15      1.0000 0.10790  0.65420  0.14500  Biso   1.000  C
  C16      1.0000 0.37650  0.49030  0.51390  Biso   1.000  C
  C17      1.0000 0.32420  0.50060  0.54230  Biso   1.000  C
  C18      1.0000 0.25210  0.49310  0.51720  Biso   1.000  C
  H8       1.0000 0.23700  0.48300  0.48220  Biso   1.000  H
  C19      1.0000 0.20250  0.50030  0.54310  Biso   1.000  C
  C20      1.0000 0.12560  0.49720  0.51610  Biso   1.000  C
  C21      1.0000 0.22640  0.51170  0.59570  Biso   1.000  C
  H9       1.0000 0.19290  0.51510  0.61400  Biso   1.000  H
  C22      1.0000 0.29850  0.51800  0.62090  Biso   1.000  C
  C23      1.0000 0.34670  0.51410  0.59360  Biso   1.000  C
  H10      1.0000 0.39580  0.52080  0.61020  Biso   1.000  H
  C24      1.0000 0.32480  0.52850  0.67650  Biso   1.000  C
  C25      1.0000 0.37400  0.54420  0.78070  Biso   1.000  C
  C26      1.0000 0.40120  0.55490  0.83670  Biso   1.000  C
  C27      1.0000 0.27410  0.53390  0.70340  Biso   1.000  C
  H11      1.0000 0.22470  0.53360  0.68620  Biso   1.000  H
  C28      1.0000 0.29920  0.53990  0.75670  Biso   1.000  C
  H12      1.0000 0.26680  0.54110  0.77600  Biso   1.000  H
  C29      1.0000 0.41660  0.50490  0.75590  Biso   1.000  C
  H13      1.0000 0.46010  0.48320  0.77470  Biso   1.000  H
  C30      1.0000 0.39270  0.49880  0.70240  Biso   1.000  C
  H14      1.0000 0.42100  0.47580  0.68470  Biso   1.000  H
  O14      1.0000 0.54990  0.96420  0.35670  Biso   1.000  O
  N1       1.0000 0.57350  0.96290  0.28250  Biso   1.000  N
  C31      1.0000 0.56130  0.93180  0.32200  Biso   1.000  C
  C32      1.0000 0.59890  0.92150  0.24550  Biso   1.000  C
  H15      1.0000 0.60100  0.86970  0.25390  Biso   1.000  H
  H16      1.0000 0.64640  0.93850  0.24650  Biso   1.000  H
  H17      1.0000 0.56620  0.92880  0.21180  Biso   1.000  H
  C33      1.0000 0.55030  0.04040  0.27560  Biso   1.000  C
  H18      1.0000 0.53170  0.05490  0.30300  Biso   1.000  H
  H19      1.0000 0.59090  0.07110  0.27580  Biso   1.000  H
  C34      1.0000 0.58410  0.84710  0.32140  Biso   1.000  C
  H20      1.0000 0.57320  0.82130  0.34890  Biso   1.000  H
  H21      1.0000 0.63510  0.84390  0.32570  Biso   1.000  H
  H22      1.0000 0.55770  0.82510  0.28930  Biso   1.000  H
  O15      1.0000 0.55660  0.10960  0.37870  Biso   1.000  O
  C35      1.0000 0.23020  0.64040  0.27970  Biso   1.000  C
  H23      1.0000 0.23920  0.60720  0.30690  Biso   1.000  H
  C36      1.0000 0.17710  0.62670  0.23450  Biso   1.000  C
  H24      1.0000 0.14880  0.58430  0.23210  Biso   1.000  H
  C37      1.0000 0.20500  0.73530  0.19970  Biso   1.000  C
  H25      1.0000 0.19640  0.76910  0.17280  Biso   1.000  H
  C38      1.0000 0.25810  0.75100  0.24390  Biso   1.000  C
  H26      1.0000 0.28630  0.79350  0.24650  Biso   1.000  H
  C39      1.0000 0.28390  0.55630  0.70630  Biso   1.000  C
  H27      1.0000 0.23630  0.57070  0.69020  Biso   1.000  H
  C40      1.0000 0.30850  0.56300  0.75410  Biso   1.000  C
  H28      1.0000 0.27800  0.58240  0.77160  Biso   1.000  H
  C41      1.0000 0.41410  0.56490  0.75280  Biso   1.000  C
  H29      1.0000 0.45930  0.58540  0.76870  Biso   1.000  H
  C42      1.0000 0.39220  0.55750  0.70080  Biso   1.000  C
  H30      1.0000 0.42250  0.57200  0.68180  Biso   1.000  H
  O16      1.0000 0.54550  0.82390  0.33260  Biso   1.000  O
  C43      1.0000 0.56170  0.79210  0.29910  Biso   1.000  C
  N2       1.0000 0.53930  0.72800  0.27760  Biso   1.000  N
  C44      1.0000 0.48100  0.68930  0.29060  Biso   1.000  C
  H31      1.0000 0.46980  0.71690  0.31640  Biso   1.000  H
  H32      1.0000 0.43810  0.67950  0.26430  Biso   1.000  H
  H33      1.0000 0.50220  0.64500  0.30450  Biso   1.000  H
  C45      1.0000 0.56700  0.69900  0.23720  Biso   1.000  C
  H34      1.0000 0.59870  0.72880  0.22610  Biso   1.000  H
  H35      1.0000 0.59020  0.65450  0.24980  Biso   1.000  H
  H36      1.0000 0.52600  0.68900  0.20950  Biso   1.000  H
  C46      1.0000 0.61860  0.83530  0.27780  Biso   1.000  C
  H37      1.0000 0.63020  0.87940  0.29610  Biso   1.000  H
  H38      1.0000 0.66060  0.80780  0.28180  Biso   1.000  H
  H39      1.0000 0.59730  0.84560  0.24280  Biso   1.000  H
  H40      1.0000 0.51320  0.04590  0.24350  Biso   1.000  H
  Tb3      1.0000 0.99663  0.51839  0.41330  Biso   1.000  Tb
  Tb4      1.0000 0.95337  0.92854  0.44171  Biso   1.000  Tb
  O17      1.0000 0.91180  0.42800  0.36643  Biso   1.000  O
  O18      1.0000 0.99080  0.38960  0.43520  Biso   1.000  O
  O19      1.0000 0.08170  0.61000  0.39580  Biso   1.000  O
  O20      1.0000 0.58900  0.19900  0.11110  Biso   1.000  O
  O21      1.0000 0.58690  0.08970  0.14010  Biso   1.000  O
  O22      1.0000 0.92670  0.04990  0.42500  Biso   1.000  O
  O23      1.0000 0.99450  0.12720  0.48070  Biso   1.000  O
  O24      1.0000 0.93770  0.01620  0.53140  Biso   1.000  O
  O25      1.0000 0.96720  0.04870  0.85770  Biso   1.000  O
  O26      1.0000 0.86010  0.06830  0.86090  Biso   1.000  O
  O27      1.0000 0.58260  0.98860  0.54090  Biso   1.000  O
  O28      1.0000 0.60710  0.00180  0.46940  Biso   1.000  O
  O29      1.0000 0.85710  0.95270  0.47390  Biso   1.000  O
  C47      1.0000 0.93880  0.37760  0.39670  Biso   1.000  C
  C48      1.0000 0.90910  0.30220  0.38610  Biso   1.000  C
  C49      1.0000 0.93850  0.24500  0.41870  Biso   1.000  C
  H41      1.0000 0.97530  0.25470  0.44880  Biso   1.000  H
  C50      1.0000 0.91490  0.17470  0.40750  Biso   1.000  C
  C51      1.0000 0.94870  0.11300  0.44040  Biso   1.000  C
  C52      1.0000 0.85840  0.16140  0.36280  Biso   1.000  C
  H42      1.0000 0.84210  0.11320  0.35450  Biso   1.000  H
  C53      1.0000 0.82700  0.21810  0.33120  Biso   1.000  C
  C54      1.0000 0.85320  0.28820  0.34350  Biso   1.000  C
  H43      1.0000 0.83220  0.32740  0.32200  Biso   1.000  H
  C55      1.0000 0.76910  0.20380  0.28350  Biso   1.000  C
  C56      1.0000 0.75780  0.13460  0.26450  Biso   1.000  C
  H44      1.0000 0.78570  0.09600  0.28270  Biso   1.000  H
  C57      1.0000 0.70670  0.12000  0.21940  Biso   1.000  C
  H45      1.0000 0.70140  0.07180  0.20680  Biso   1.000  H
  C58      1.0000 0.66790  0.24250  0.21120  Biso   1.000  C
  H46      1.0000 0.63580  0.27880  0.19390  Biso   1.000  H
  C59      1.0000 0.72070  0.25850  0.25620  Biso   1.000  C
  H47      1.0000 0.72460  0.30660  0.26900  Biso   1.000  H
  C60      1.0000 0.66380  0.17300  0.19270  Biso   1.000  C
  C61      1.0000 0.60790  0.15420  0.14500  Biso   1.000  C
  C62      1.0000 0.87650  0.99030  0.51390  Biso   1.000  C
  C63      1.0000 0.82420  0.00060  0.54230  Biso   1.000  C
  C64      1.0000 0.75210  0.99310  0.51720  Biso   1.000  C
  H48      1.0000 0.73700  0.98300  0.48220  Biso   1.000  H
  C65      1.0000 0.70250  0.00030  0.54310  Biso   1.000  C
  C66      1.0000 0.62560  0.99720  0.51610  Biso   1.000  C
  C67      1.0000 0.72640  0.01170  0.59570  Biso   1.000  C
  H49      1.0000 0.69290  0.01510  0.61400  Biso   1.000  H
  C68      1.0000 0.79850  0.01800  0.62090  Biso   1.000  C
  C69      1.0000 0.84670  0.01410  0.59360  Biso   1.000  C
  H50      1.0000 0.89580  0.02080  0.61020  Biso   1.000  H
  C70      1.0000 0.82480  0.02850  0.67650  Biso   1.000  C
  C71      1.0000 0.87400  0.04420  0.78070  Biso   1.000  C
  C72      1.0000 0.90120  0.05490  0.83670  Biso   1.000  C
  C73      1.0000 0.77410  0.03390  0.70340  Biso   1.000  C
  H51      1.0000 0.72470  0.03360  0.68620  Biso   1.000  H
  C74      1.0000 0.79920  0.03990  0.75670  Biso   1.000  C
  H52      1.0000 0.76680  0.04110  0.77600  Biso   1.000  H
  C75      1.0000 0.91660  0.00490  0.75590  Biso   1.000  C
  H53      1.0000 0.96010  0.98320  0.77470  Biso   1.000  H
  C76      1.0000 0.89270  0.99880  0.70240  Biso   1.000  C
  H54      1.0000 0.92100  0.97580  0.68470  Biso   1.000  H
  O30      1.0000 0.04990  0.46420  0.35670  Biso   1.000  O
  N3       1.0000 0.07350  0.46290  0.28250  Biso   1.000  N
  C77      1.0000 0.06130  0.43180  0.32200  Biso   1.000  C
  C78      1.0000 0.09890  0.42150  0.24550  Biso   1.000  C
  H55      1.0000 0.10100  0.36970  0.25390  Biso   1.000  H
  H56      1.0000 0.14640  0.43850  0.24650  Biso   1.000  H
  H57      1.0000 0.06620  0.42880  0.21180  Biso   1.000  H
  C79      1.0000 0.05030  0.54040  0.27560  Biso   1.000  C
  H58      1.0000 0.03170  0.55490  0.30300  Biso   1.000  H
  H59      1.0000 0.09090  0.57110  0.27580  Biso   1.000  H
  C80      1.0000 0.08410  0.34710  0.32140  Biso   1.000  C
  H60      1.0000 0.07320  0.32130  0.34890  Biso   1.000  H
  H61      1.0000 0.13510  0.34390  0.32570  Biso   1.000  H
  H62      1.0000 0.05770  0.32510  0.28930  Biso   1.000  H
  O31      1.0000 0.05660  0.60960  0.37870  Biso   1.000  O
  C81      1.0000 0.73020  0.14040  0.27970  Biso   1.000  C
  H63      1.0000 0.73920  0.10720  0.30690  Biso   1.000  H
  C82      1.0000 0.67710  0.12670  0.23450  Biso   1.000  C
  H64      1.0000 0.64880  0.08430  0.23210  Biso   1.000  H
  C83      1.0000 0.70500  0.23530  0.19970  Biso   1.000  C
  H65      1.0000 0.69640  0.26910  0.17280  Biso   1.000  H
  C84      1.0000 0.75810  0.25100  0.24390  Biso   1.000  C
  H66      1.0000 0.78630  0.29350  0.24650  Biso   1.000  H
  C85      1.0000 0.78390  0.05630  0.70630  Biso   1.000  C
  H67      1.0000 0.73630  0.07070  0.69020  Biso   1.000  H
  C86      1.0000 0.80850  0.06300  0.75410  Biso   1.000  C
  H68      1.0000 0.77800  0.08240  0.77160  Biso   1.000  H
  C87      1.0000 0.91410  0.06490  0.75280  Biso   1.000  C
  H69      1.0000 0.95930  0.08540  0.76870  Biso   1.000  H
  C88      1.0000 0.89220  0.05750  0.70080  Biso   1.000  C
  H70      1.0000 0.92250  0.07200  0.68180  Biso   1.000  H
  O32      1.0000 0.04550  0.32390  0.33260  Biso   1.000  O
  C89      1.0000 0.06170  0.29210  0.29910  Biso   1.000  C
  N4       1.0000 0.03930  0.22800  0.27760  Biso   1.000  N
  C90      1.0000 0.98100  0.18930  0.29060  Biso   1.000  C
  H71      1.0000 0.96980  0.21690  0.31640  Biso   1.000  H
  H72      1.0000 0.93810  0.17950  0.26430  Biso   1.000  H
  H73      1.0000 0.00220  0.14500  0.30450  Biso   1.000  H
  C91      1.0000 0.06700  0.19900  0.23720  Biso   1.000  C
  H74      1.0000 0.09870  0.22880  0.22610  Biso   1.000  H
  H75      1.0000 0.09020  0.15450  0.24980  Biso   1.000  H
  H76      1.0000 0.02600  0.18900  0.20950  Biso   1.000  H
  C92      1.0000 0.11860  0.33530  0.27780  Biso   1.000  C
  H77      1.0000 0.13020  0.37940  0.29610  Biso   1.000  H
  H78      1.0000 0.16060  0.30780  0.28180  Biso   1.000  H
  H79      1.0000 0.09730  0.34560  0.24280  Biso   1.000  H
  H80      1.0000 0.01320  0.54590  0.24350  Biso   1.000  H
  Tb5      1.0000 0.50337  0.01839  0.08670  Biso   1.000  Tb
  Tb6      1.0000 0.54663  0.42854  0.05829  Biso   1.000  Tb
  O33      1.0000 0.58820  0.92800  0.13357  Biso   1.000  O
  O34      1.0000 0.50920  0.88960  0.06480  Biso   1.000  O
  O35      1.0000 0.41830  0.11000  0.10420  Biso   1.000  O
  O36      1.0000 0.91100  0.69900  0.38890  Biso   1.000  O
  O37      1.0000 0.91310  0.58970  0.35990  Biso   1.000  O
  O38      1.0000 0.57330  0.54990  0.07500  Biso   1.000  O
  O39      1.0000 0.50550  0.62720  0.01930  Biso   1.000  O
  O40      1.0000 0.56230  0.51620  0.96860  Biso   1.000  O
  O41      1.0000 0.53280  0.54870  0.64230  Biso   1.000  O
  O42      1.0000 0.63990  0.56830  0.63910  Biso   1.000  O
  O43      1.0000 0.91740  0.48860  0.95910  Biso   1.000  O
  O44      1.0000 0.89290  0.50180  0.03060  Biso   1.000  O
  O45      1.0000 0.64290  0.45270  0.02610  Biso   1.000  O
  C93      1.0000 0.56120  0.87760  0.10330  Biso   1.000  C
  C94      1.0000 0.59090  0.80220  0.11390  Biso   1.000  C
  C95      1.0000 0.56150  0.74500  0.08130  Biso   1.000  C
  H81      1.0000 0.52470  0.75470  0.05120  Biso   1.000  H
  C96      1.0000 0.58510  0.67470  0.09250  Biso   1.000  C
  C97      1.0000 0.55130  0.61300  0.05960  Biso   1.000  C
  C98      1.0000 0.64160  0.66140  0.13720  Biso   1.000  C
  H82      1.0000 0.65790  0.61320  0.14550  Biso   1.000  H
  C99      1.0000 0.67300  0.71810  0.16880  Biso   1.000  C
  C100     1.0000 0.64680  0.78820  0.15650  Biso   1.000  C
  H83      1.0000 0.66780  0.82740  0.17800  Biso   1.000  H
  C101     1.0000 0.73090  0.70380  0.21650  Biso   1.000  C
  C102     1.0000 0.74220  0.63460  0.23550  Biso   1.000  C
  H84      1.0000 0.71430  0.59600  0.21730  Biso   1.000  H
  C103     1.0000 0.79330  0.62000  0.28060  Biso   1.000  C
  H85      1.0000 0.79860  0.57180  0.29320  Biso   1.000  H
  C104     1.0000 0.83210  0.74250  0.28880  Biso   1.000  C
  H86      1.0000 0.86420  0.77880  0.30610  Biso   1.000  H
  C105     1.0000 0.77930  0.75850  0.24380  Biso   1.000  C
  H87      1.0000 0.77540  0.80660  0.23100  Biso   1.000  H
  C106     1.0000 0.83620  0.67300  0.30730  Biso   1.000  C
  C107     1.0000 0.89210  0.65420  0.35500  Biso   1.000  C
  C108     1.0000 0.62350  0.49030  0.98610  Biso   1.000  C
  C109     1.0000 0.67580  0.50060  0.95770  Biso   1.000  C
  C110     1.0000 0.74790  0.49310  0.98280  Biso   1.000  C
  H88      1.0000 0.76300  0.48300  0.01780  Biso   1.000  H
  C111     1.0000 0.79750  0.50030  0.95690  Biso   1.000  C
  C112     1.0000 0.87440  0.49720  0.98390  Biso   1.000  C
  C113     1.0000 0.77360  0.51170  0.90430  Biso   1.000  C
  H89      1.0000 0.80710  0.51510  0.88600  Biso   1.000  H
  C114     1.0000 0.70150  0.51800  0.87910  Biso   1.000  C
  C115     1.0000 0.65330  0.51410  0.90640  Biso   1.000  C
  H90      1.0000 0.60420  0.52080  0.88980  Biso   1.000  H
  C116     1.0000 0.67520  0.52850  0.82350  Biso   1.000  C
  C117     1.0000 0.62600  0.54420  0.71930  Biso   1.000  C
  C118     1.0000 0.59880  0.55490  0.66330  Biso   1.000  C
  C119     1.0000 0.72590  0.53390  0.79660  Biso   1.000  C
  H91      1.0000 0.77530  0.53360  0.81380  Biso   1.000  H
  C120     1.0000 0.70080  0.53990  0.74330  Biso   1.000  C
  H92      1.0000 0.73320  0.54110  0.72400  Biso   1.000  H
  C121     1.0000 0.58340  0.50490  0.74410  Biso   1.000  C
  H93      1.0000 0.53990  0.48320  0.72530  Biso   1.000  H
  C122     1.0000 0.60730  0.49880  0.79760  Biso   1.000  C
  H94      1.0000 0.57900  0.47580  0.81530  Biso   1.000  H
  O46      1.0000 0.45010  0.96420  0.14330  Biso   1.000  O
  N5       1.0000 0.42650  0.96290  0.21750  Biso   1.000  N
  C123     1.0000 0.43870  0.93180  0.17800  Biso   1.000  C
  C124     1.0000 0.40110  0.92150  0.25450  Biso   1.000  C
  H95      1.0000 0.39900  0.86970  0.24610  Biso   1.000  H
  H96      1.0000 0.35360  0.93850  0.25350  Biso   1.000  H
  H97      1.0000 0.43380  0.92880  0.28820  Biso   1.000  H
  C125     1.0000 0.44970  0.04040  0.22440  Biso   1.000  C
  H98      1.0000 0.46830  0.05490  0.19700  Biso   1.000  H
  H99      1.0000 0.40910  0.07110  0.22420  Biso   1.000  H
  C126     1.0000 0.41590  0.84710  0.17860  Biso   1.000  C
  H100     1.0000 0.42680  0.82130  0.15110  Biso   1.000  H
  H101     1.0000 0.36490  0.84390  0.17430  Biso   1.000  H
  H102     1.0000 0.44230  0.82510  0.21070  Biso   1.000  H
  O47      1.0000 0.44340  0.10960  0.12130  Biso   1.000  O
  C127     1.0000 0.76980  0.64040  0.22030  Biso   1.000  C
  H103     1.0000 0.76080  0.60720  0.19310  Biso   1.000  H
  C128     1.0000 0.82290  0.62670  0.26550  Biso   1.000  C
  H104     1.0000 0.85120  0.58430  0.26790  Biso   1.000  H
  C129     1.0000 0.79500  0.73530  0.30030  Biso   1.000  C
  H105     1.0000 0.80360  0.76910  0.32720  Biso   1.000  H
  C130     1.0000 0.74190  0.75100  0.25610  Biso   1.000  C
  H106     1.0000 0.71370  0.79350  0.25350  Biso   1.000  H
  C131     1.0000 0.71610  0.55630  0.79370  Biso   1.000  C
  H107     1.0000 0.76370  0.57070  0.80980  Biso   1.000  H
  C132     1.0000 0.69150  0.56300  0.74590  Biso   1.000  C
  H108     1.0000 0.72200  0.58240  0.72840  Biso   1.000  H
  C133     1.0000 0.58590  0.56490  0.74720  Biso   1.000  C
  H109     1.0000 0.54070  0.58540  0.73130  Biso   1.000  H
  C134     1.0000 0.60780  0.55750  0.79920  Biso   1.000  C
  H110     1.0000 0.57750  0.57200  0.81820  Biso   1.000  H
  O48      1.0000 0.45450  0.82390  0.16740  Biso   1.000  O
  C135     1.0000 0.43830  0.79210  0.20090  Biso   1.000  C
  N6       1.0000 0.46070  0.72800  0.22240  Biso   1.000  N
  C136     1.0000 0.51900  0.68930  0.20940  Biso   1.000  C
  H111     1.0000 0.53020  0.71690  0.18360  Biso   1.000  H
  H112     1.0000 0.56190  0.67950  0.23570  Biso   1.000  H
  H113     1.0000 0.49780  0.64500  0.19550  Biso   1.000  H
  C137     1.0000 0.43300  0.69900  0.26280  Biso   1.000  C
  H114     1.0000 0.40130  0.72880  0.27390  Biso   1.000  H
  H115     1.0000 0.40980  0.65450  0.25020  Biso   1.000  H
  H116     1.0000 0.47400  0.68900  0.29050  Biso   1.000  H
  C138     1.0000 0.38140  0.83530  0.22220  Biso   1.000  C
  H117     1.0000 0.36980  0.87940  0.20390  Biso   1.000  H
  H118     1.0000 0.33940  0.80780  0.21820  Biso   1.000  H
  H119     1.0000 0.40270  0.84560  0.25720  Biso   1.000  H
  H120     1.0000 0.48680  0.04590  0.25650  Biso   1.000  H
  Tb7      1.0000 0.00337  0.51839  0.08670  Biso   1.000  Tb
  Tb8      1.0000 0.04663  0.92854  0.05829  Biso   1.000  Tb
  O49      1.0000 0.08820  0.42800  0.13357  Biso   1.000  O
  O50      1.0000 0.00920  0.38960  0.06480  Biso   1.000  O
  O51      1.0000 0.91830  0.61000  0.10420  Biso   1.000  O
  O52      1.0000 0.41100  0.19900  0.38890  Biso   1.000  O
  O53      1.0000 0.41310  0.08970  0.35990  Biso   1.000  O
  O54      1.0000 0.07330  0.04990  0.07500  Biso   1.000  O
  O55      1.0000 0.00550  0.12720  0.01930  Biso   1.000  O
  O56      1.0000 0.06230  0.01620  0.96860  Biso   1.000  O
  O57      1.0000 0.03280  0.04870  0.64230  Biso   1.000  O
  O58      1.0000 0.13990  0.06830  0.63910  Biso   1.000  O
  O59      1.0000 0.41740  0.98860  0.95910  Biso   1.000  O
  O60      1.0000 0.39290  0.00180  0.03060  Biso   1.000  O
  O61      1.0000 0.14290  0.95270  0.02610  Biso   1.000  O
  C139     1.0000 0.06120  0.37760  0.10330  Biso   1.000  C
  C140     1.0000 0.09090  0.30220  0.11390  Biso   1.000  C
  C141     1.0000 0.06150  0.24500  0.08130  Biso   1.000  C
  H121     1.0000 0.02470  0.25470  0.05120  Biso   1.000  H
  C142     1.0000 0.08510  0.17470  0.09250  Biso   1.000  C
  C143     1.0000 0.05130  0.11300  0.05960  Biso   1.000  C
  C144     1.0000 0.14160  0.16140  0.13720  Biso   1.000  C
  H122     1.0000 0.15790  0.11320  0.14550  Biso   1.000  H
  C145     1.0000 0.17300  0.21810  0.16880  Biso   1.000  C
  C146     1.0000 0.14680  0.28820  0.15650  Biso   1.000  C
  H123     1.0000 0.16780  0.32740  0.17800  Biso   1.000  H
  C147     1.0000 0.23090  0.20380  0.21650  Biso   1.000  C
  C148     1.0000 0.24220  0.13460  0.23550  Biso   1.000  C
  H124     1.0000 0.21430  0.09600  0.21730  Biso   1.000  H
  C149     1.0000 0.29330  0.12000  0.28060  Biso   1.000  C
  H125     1.0000 0.29860  0.07180  0.29320  Biso   1.000  H
  C150     1.0000 0.33210  0.24250  0.28880  Biso   1.000  C
  H126     1.0000 0.36420  0.27880  0.30610  Biso   1.000  H
  C151     1.0000 0.27930  0.25850  0.24380  Biso   1.000  C
  H127     1.0000 0.27540  0.30660  0.23100  Biso   1.000  H
  C152     1.0000 0.33620  0.17300  0.30730  Biso   1.000  C
  C153     1.0000 0.39210  0.15420  0.35500  Biso   1.000  C
  C154     1.0000 0.12350  0.99030  0.98610  Biso   1.000  C
  C155     1.0000 0.17580  0.00060  0.95770  Biso   1.000  C
  C156     1.0000 0.24790  0.99310  0.98280  Biso   1.000  C
  H128     1.0000 0.26300  0.98300  0.01780  Biso   1.000  H
  C157     1.0000 0.29750  0.00030  0.95690  Biso   1.000  C
  C158     1.0000 0.37440  0.99720  0.98390  Biso   1.000  C
  C159     1.0000 0.27360  0.01170  0.90430  Biso   1.000  C
  H129     1.0000 0.30710  0.01510  0.88600  Biso   1.000  H
  C160     1.0000 0.20150  0.01800  0.87910  Biso   1.000  C
  C161     1.0000 0.15330  0.01410  0.90640  Biso   1.000  C
  H130     1.0000 0.10420  0.02080  0.88980  Biso   1.000  H
  C162     1.0000 0.17520  0.02850  0.82350  Biso   1.000  C
  C163     1.0000 0.12600  0.04420  0.71930  Biso   1.000  C
  C164     1.0000 0.09880  0.05490  0.66330  Biso   1.000  C
  C165     1.0000 0.22590  0.03390  0.79660  Biso   1.000  C
  H131     1.0000 0.27530  0.03360  0.81380  Biso   1.000  H
  C166     1.0000 0.20080  0.03990  0.74330  Biso   1.000  C
  H132     1.0000 0.23320  0.04110  0.72400  Biso   1.000  H
  C167     1.0000 0.08340  0.00490  0.74410  Biso   1.000  C
  H133     1.0000 0.03990  0.98320  0.72530  Biso   1.000  H
  C168     1.0000 0.10730  0.99880  0.79760  Biso   1.000  C
  H134     1.0000 0.07900  0.97580  0.81530  Biso   1.000  H
  O62      1.0000 0.95010  0.46420  0.14330  Biso   1.000  O
  N7       1.0000 0.92650  0.46290  0.21750  Biso   1.000  N
  C169     1.0000 0.93870  0.43180  0.17800  Biso   1.000  C
  C170     1.0000 0.90110  0.42150  0.25450  Biso   1.000  C
  H135     1.0000 0.89900  0.36970  0.24610  Biso   1.000  H
  H136     1.0000 0.85360  0.43850  0.25350  Biso   1.000  H
  H137     1.0000 0.93380  0.42880  0.28820  Biso   1.000  H
  C171     1.0000 0.94970  0.54040  0.22440  Biso   1.000  C
  H138     1.0000 0.96830  0.55490  0.19700  Biso   1.000  H
  H139     1.0000 0.90910  0.57110  0.22420  Biso   1.000  H
  C172     1.0000 0.91590  0.34710  0.17860  Biso   1.000  C
  H140     1.0000 0.92680  0.32130  0.15110  Biso   1.000  H
  H141     1.0000 0.86490  0.34390  0.17430  Biso   1.000  H
  H142     1.0000 0.94230  0.32510  0.21070  Biso   1.000  H
  O63      1.0000 0.94340  0.60960  0.12130  Biso   1.000  O
  C173     1.0000 0.26980  0.14040  0.22030  Biso   1.000  C
  H143     1.0000 0.26080  0.10720  0.19310  Biso   1.000  H
  C174     1.0000 0.32290  0.12670  0.26550  Biso   1.000  C
  H144     1.0000 0.35120  0.08430  0.26790  Biso   1.000  H
  C175     1.0000 0.29500  0.23530  0.30030  Biso   1.000  C
  H145     1.0000 0.30360  0.26910  0.32720  Biso   1.000  H
  C176     1.0000 0.24190  0.25100  0.25610  Biso   1.000  C
  H146     1.0000 0.21370  0.29350  0.25350  Biso   1.000  H
  C177     1.0000 0.21610  0.05630  0.79370  Biso   1.000  C
  H147     1.0000 0.26370  0.07070  0.80980  Biso   1.000  H
  C178     1.0000 0.19150  0.06300  0.74590  Biso   1.000  C
  H148     1.0000 0.22200  0.08240  0.72840  Biso   1.000  H
  C179     1.0000 0.08590  0.06490  0.74720  Biso   1.000  C
  H149     1.0000 0.04070  0.08540  0.73130  Biso   1.000  H
  C180     1.0000 0.10780  0.05750  0.79920  Biso   1.000  C
  H150     1.0000 0.07750  0.07200  0.81820  Biso   1.000  H
  O64      1.0000 0.95450  0.32390  0.16740  Biso   1.000  O
  C181     1.0000 0.93830  0.29210  0.20090  Biso   1.000  C
  N8       1.0000 0.96070  0.22800  0.22240  Biso   1.000  N
  C182     1.0000 0.01900  0.18930  0.20940  Biso   1.000  C
  H151     1.0000 0.03020  0.21690  0.18360  Biso   1.000  H
  H152     1.0000 0.06190  0.17950  0.23570  Biso   1.000  H
  H153     1.0000 0.99780  0.14500  0.19550  Biso   1.000  H
  C183     1.0000 0.93300  0.19900  0.26280  Biso   1.000  C
  H154     1.0000 0.90130  0.22880  0.27390  Biso   1.000  H
  H155     1.0000 0.90980  0.15450  0.25020  Biso   1.000  H
  H156     1.0000 0.97400  0.18900  0.29050  Biso   1.000  H
  C184     1.0000 0.88140  0.33530  0.22220  Biso   1.000  C
  H157     1.0000 0.86980  0.37940  0.20390  Biso   1.000  H
  H158     1.0000 0.83940  0.30780  0.21820  Biso   1.000  H
  H159     1.0000 0.90270  0.34560  0.25720  Biso   1.000  H
  H160     1.0000 0.98680  0.54590  0.25650  Biso   1.000  H
  Tb9      1.0000 0.50337  0.98161  0.58670  Biso   1.000  Tb
  Tb10     1.0000 0.54663  0.57146  0.55829  Biso   1.000  Tb
  O65      1.0000 0.58820  0.07200  0.63357  Biso   1.000  O
  O66      1.0000 0.50920  0.11040  0.56480  Biso   1.000  O
  O67      1.0000 0.41830  0.89000  0.60420  Biso   1.000  O
  O68      1.0000 0.91100  0.30100  0.88890  Biso   1.000  O
  O69      1.0000 0.91310  0.41030  0.85990  Biso   1.000  O
  O70      1.0000 0.57330  0.45010  0.57500  Biso   1.000  O
  O71      1.0000 0.50550  0.37280  0.51930  Biso   1.000  O
  O72      1.0000 0.56230  0.48380  0.46860  Biso   1.000  O
  O73      1.0000 0.53280  0.45130  0.14230  Biso   1.000  O
  O74      1.0000 0.63990  0.43170  0.13910  Biso   1.000  O
  O75      1.0000 0.91740  0.51140  0.45910  Biso   1.000  O
  O76      1.0000 0.89290  0.49820  0.53060  Biso   1.000  O
  O77      1.0000 0.64290  0.54730  0.52610  Biso   1.000  O
  C185     1.0000 0.56120  0.12240  0.60330  Biso   1.000  C
  C186     1.0000 0.59090  0.19780  0.61390  Biso   1.000  C
  C187     1.0000 0.56150  0.25500  0.58130  Biso   1.000  C
  H161     1.0000 0.52470  0.24530  0.55120  Biso   1.000  H
  C188     1.0000 0.58510  0.32530  0.59250  Biso   1.000  C
  C189     1.0000 0.55130  0.38700  0.55960  Biso   1.000  C
  C190     1.0000 0.64160  0.33860  0.63720  Biso   1.000  C
  H162     1.0000 0.65790  0.38680  0.64550  Biso   1.000  H
  C191     1.0000 0.67300  0.28190  0.66880  Biso   1.000  C
  C192     1.0000 0.64680  0.21180  0.65650  Biso   1.000  C
  H163     1.0000 0.66780  0.17260  0.67800  Biso   1.000  H
  C193     1.0000 0.73090  0.29620  0.71650  Biso   1.000  C
  C194     1.0000 0.74220  0.36540  0.73550  Biso   1.000  C
  H164     1.0000 0.71430  0.40400  0.71730  Biso   1.000  H
  C195     1.0000 0.79330  0.38000  0.78060  Biso   1.000  C
  H165     1.0000 0.79860  0.42820  0.79320  Biso   1.000  H
  C196     1.0000 0.83210  0.25750  0.78880  Biso   1.000  C
  H166     1.0000 0.86420  0.22120  0.80610  Biso   1.000  H
  C197     1.0000 0.77930  0.24150  0.74380  Biso   1.000  C
  H167     1.0000 0.77540  0.19340  0.73100  Biso   1.000  H
  C198     1.0000 0.83620  0.32700  0.80730  Biso   1.000  C
  C199     1.0000 0.89210  0.34580  0.85500  Biso   1.000  C
  C200     1.0000 0.62350  0.50970  0.48610  Biso   1.000  C
  C201     1.0000 0.67580  0.49940  0.45770  Biso   1.000  C
  C202     1.0000 0.74790  0.50690  0.48280  Biso   1.000  C
  H168     1.0000 0.76300  0.51700  0.51780  Biso   1.000  H
  C203     1.0000 0.79750  0.49970  0.45690  Biso   1.000  C
  C204     1.0000 0.87440  0.50280  0.48390  Biso   1.000  C
  C205     1.0000 0.77360  0.48830  0.40430  Biso   1.000  C
  H169     1.0000 0.80710  0.48490  0.38600  Biso   1.000  H
  C206     1.0000 0.70150  0.48200  0.37910  Biso   1.000  C
  C207     1.0000 0.65330  0.48590  0.40640  Biso   1.000  C
  H170     1.0000 0.60420  0.47920  0.38980  Biso   1.000  H
  C208     1.0000 0.67520  0.47150  0.32350  Biso   1.000  C
  C209     1.0000 0.62600  0.45580  0.21930  Biso   1.000  C
  C210     1.0000 0.59880  0.44510  0.16330  Biso   1.000  C
  C211     1.0000 0.72590  0.46610  0.29660  Biso   1.000  C
  H171     1.0000 0.77530  0.46640  0.31380  Biso   1.000  H
  C212     1.0000 0.70080  0.46010  0.24330  Biso   1.000  C
  H172     1.0000 0.73320  0.45890  0.22400  Biso   1.000  H
  C213     1.0000 0.58340  0.49510  0.24410  Biso   1.000  C
  H173     1.0000 0.53990  0.51680  0.22530  Biso   1.000  H
  C214     1.0000 0.60730  0.50120  0.29760  Biso   1.000  C
  H174     1.0000 0.57900  0.52420  0.31530  Biso   1.000  H
  O78      1.0000 0.45010  0.03580  0.64330  Biso   1.000  O
  N9       1.0000 0.42650  0.03710  0.71750  Biso   1.000  N
  C215     1.0000 0.43870  0.06820  0.67800  Biso   1.000  C
  C216     1.0000 0.40110  0.07850  0.75450  Biso   1.000  C
  H175     1.0000 0.39900  0.13030  0.74610  Biso   1.000  H
  H176     1.0000 0.35360  0.06150  0.75350  Biso   1.000  H
  H177     1.0000 0.43380  0.07120  0.78820  Biso   1.000  H
  C217     1.0000 0.44970  0.95960  0.72440  Biso   1.000  C
  H178     1.0000 0.46830  0.94510  0.69700  Biso   1.000  H
  H179     1.0000 0.40910  0.92890  0.72420  Biso   1.000  H
  C218     1.0000 0.41590  0.15290  0.67860  Biso   1.000  C
  H180     1.0000 0.42680  0.17870  0.65110  Biso   1.000  H
  H181     1.0000 0.36490  0.15610  0.67430  Biso   1.000  H
  H182     1.0000 0.44230  0.17490  0.71070  Biso   1.000  H
  O79      1.0000 0.44340  0.89040  0.62130  Biso   1.000  O
  C219     1.0000 0.76980  0.35960  0.72030  Biso   1.000  C
  H183     1.0000 0.76080  0.39280  0.69310  Biso   1.000  H
  C220     1.0000 0.82290  0.37330  0.76550  Biso   1.000  C
  H184     1.0000 0.85120  0.41570  0.76790  Biso   1.000  H
  C221     1.0000 0.79500  0.26470  0.80030  Biso   1.000  C
  H185     1.0000 0.80360  0.23090  0.82720  Biso   1.000  H
  C222     1.0000 0.74190  0.24900  0.75610  Biso   1.000  C
  H186     1.0000 0.71370  0.20650  0.75350  Biso   1.000  H
  C223     1.0000 0.71610  0.44370  0.29370  Biso   1.000  C
  H187     1.0000 0.76370  0.42930  0.30980  Biso   1.000  H
  C224     1.0000 0.69150  0.43700  0.24590  Biso   1.000  C
  H188     1.0000 0.72200  0.41760  0.22840  Biso   1.000  H
  C225     1.0000 0.58590  0.43510  0.24720  Biso   1.000  C
  H189     1.0000 0.54070  0.41460  0.23130  Biso   1.000  H
  C226     1.0000 0.60780  0.44250  0.29920  Biso   1.000  C
  H190     1.0000 0.57750  0.42800  0.31820  Biso   1.000  H
  O80      1.0000 0.45450  0.17610  0.66740  Biso   1.000  O
  C227     1.0000 0.43830  0.20790  0.70090  Biso   1.000  C
  N10      1.0000 0.46070  0.27200  0.72240  Biso   1.000  N
  C228     1.0000 0.51900  0.31070  0.70940  Biso   1.000  C
  H191     1.0000 0.53020  0.28310  0.68360  Biso   1.000  H
  H192     1.0000 0.56190  0.32050  0.73570  Biso   1.000  H
  H193     1.0000 0.49780  0.35500  0.69550  Biso   1.000  H
  C229     1.0000 0.43300  0.30100  0.76280  Biso   1.000  C
  H194     1.0000 0.40130  0.27120  0.77390  Biso   1.000  H
  H195     1.0000 0.40980  0.34550  0.75020  Biso   1.000  H
  H196     1.0000 0.47400  0.31100  0.79050  Biso   1.000  H
  C230     1.0000 0.38140  0.16470  0.72220  Biso   1.000  C
  H197     1.0000 0.36980  0.12060  0.70390  Biso   1.000  H
  H198     1.0000 0.33940  0.19220  0.71820  Biso   1.000  H
  H199     1.0000 0.40270  0.15440  0.75720  Biso   1.000  H
  H200     1.0000 0.48680  0.95410  0.75650  Biso   1.000  H
  Tb11     1.0000 0.00337  0.48161  0.58670  Biso   1.000  Tb
  Tb12     1.0000 0.04663  0.07146  0.55829  Biso   1.000  Tb
  O81      1.0000 0.08820  0.57200  0.63357  Biso   1.000  O
  O82      1.0000 0.00920  0.61040  0.56480  Biso   1.000  O
  O83      1.0000 0.91830  0.39000  0.60420  Biso   1.000  O
  O84      1.0000 0.41100  0.80100  0.88890  Biso   1.000  O
  O85      1.0000 0.41310  0.91030  0.85990  Biso   1.000  O
  O86      1.0000 0.07330  0.95010  0.57500  Biso   1.000  O
  O87      1.0000 0.00550  0.87280  0.51930  Biso   1.000  O
  O88      1.0000 0.06230  0.98380  0.46860  Biso   1.000  O
  O89      1.0000 0.03280  0.95130  0.14230  Biso   1.000  O
  O90      1.0000 0.13990  0.93170  0.13910  Biso   1.000  O
  O91      1.0000 0.41740  0.01140  0.45910  Biso   1.000  O
  O92      1.0000 0.39290  0.99820  0.53060  Biso   1.000  O
  O93      1.0000 0.14290  0.04730  0.52610  Biso   1.000  O
  C231     1.0000 0.06120  0.62240  0.60330  Biso   1.000  C
  C232     1.0000 0.09090  0.69780  0.61390  Biso   1.000  C
  C233     1.0000 0.06150  0.75500  0.58130  Biso   1.000  C
  H201     1.0000 0.02470  0.74530  0.55120  Biso   1.000  H
  C234     1.0000 0.08510  0.82530  0.59250  Biso   1.000  C
  C235     1.0000 0.05130  0.88700  0.55960  Biso   1.000  C
  C236     1.0000 0.14160  0.83860  0.63720  Biso   1.000  C
  H202     1.0000 0.15790  0.88680  0.64550  Biso   1.000  H
  C237     1.0000 0.17300  0.78190  0.66880  Biso   1.000  C
  C238     1.0000 0.14680  0.71180  0.65650  Biso   1.000  C
  H203     1.0000 0.16780  0.67260  0.67800  Biso   1.000  H
  C239     1.0000 0.23090  0.79620  0.71650  Biso   1.000  C
  C240     1.0000 0.24220  0.86540  0.73550  Biso   1.000  C
  H204     1.0000 0.21430  0.90400  0.71730  Biso   1.000  H
  C241     1.0000 0.29330  0.88000  0.78060  Biso   1.000  C
  H205     1.0000 0.29860  0.92820  0.79320  Biso   1.000  H
  C242     1.0000 0.33210  0.75750  0.78880  Biso   1.000  C
  H206     1.0000 0.36420  0.72120  0.80610  Biso   1.000  H
  C243     1.0000 0.27930  0.74150  0.74380  Biso   1.000  C
  H207     1.0000 0.27540  0.69340  0.73100  Biso   1.000  H
  C244     1.0000 0.33620  0.82700  0.80730  Biso   1.000  C
  C245     1.0000 0.39210  0.84580  0.85500  Biso   1.000  C
  C246     1.0000 0.12350  0.00970  0.48610  Biso   1.000  C
  C247     1.0000 0.17580  0.99940  0.45770  Biso   1.000  C
  C248     1.0000 0.24790  0.00690  0.48280  Biso   1.000  C
  H208     1.0000 0.26300  0.01700  0.51780  Biso   1.000  H
  C249     1.0000 0.29750  0.99970  0.45690  Biso   1.000  C
  C250     1.0000 0.37440  0.00280  0.48390  Biso   1.000  C
  C251     1.0000 0.27360  0.98830  0.40430  Biso   1.000  C
  H209     1.0000 0.30710  0.98490  0.38600  Biso   1.000  H
  C252     1.0000 0.20150  0.98200  0.37910  Biso   1.000  C
  C253     1.0000 0.15330  0.98590  0.40640  Biso   1.000  C
  H210     1.0000 0.10420  0.97920  0.38980  Biso   1.000  H
  C254     1.0000 0.17520  0.97150  0.32350  Biso   1.000  C
  C255     1.0000 0.12600  0.95580  0.21930  Biso   1.000  C
  C256     1.0000 0.09880  0.94510  0.16330  Biso   1.000  C
  C257     1.0000 0.22590  0.96610  0.29660  Biso   1.000  C
  H211     1.0000 0.27530  0.96640  0.31380  Biso   1.000  H
  C258     1.0000 0.20080  0.96010  0.24330  Biso   1.000  C
  H212     1.0000 0.23320  0.95890  0.22400  Biso   1.000  H
  C259     1.0000 0.08340  0.99510  0.24410  Biso   1.000  C
  H213     1.0000 0.03990  0.01680  0.22530  Biso   1.000  H
  C260     1.0000 0.10730  0.00120  0.29760  Biso   1.000  C
  H214     1.0000 0.07900  0.02420  0.31530  Biso   1.000  H
  O94      1.0000 0.95010  0.53580  0.64330  Biso   1.000  O
  N11      1.0000 0.92650  0.53710  0.71750  Biso   1.000  N
  C261     1.0000 0.93870  0.56820  0.67800  Biso   1.000  C
  C262     1.0000 0.90110  0.57850  0.75450  Biso   1.000  C
  H215     1.0000 0.89900  0.63030  0.74610  Biso   1.000  H
  H216     1.0000 0.85360  0.56150  0.75350  Biso   1.000  H
  H217     1.0000 0.93380  0.57120  0.78820  Biso   1.000  H
  C263     1.0000 0.94970  0.45960  0.72440  Biso   1.000  C
  H218     1.0000 0.96830  0.44510  0.69700  Biso   1.000  H
  H219     1.0000 0.90910  0.42890  0.72420  Biso   1.000  H
  C264     1.0000 0.91590  0.65290  0.67860  Biso   1.000  C
  H220     1.0000 0.92680  0.67870  0.65110  Biso   1.000  H
  H221     1.0000 0.86490  0.65610  0.67430  Biso   1.000  H
  H222     1.0000 0.94230  0.67490  0.71070  Biso   1.000  H
  O95      1.0000 0.94340  0.39040  0.62130  Biso   1.000  O
  C265     1.0000 0.26980  0.85960  0.72030  Biso   1.000  C
  H223     1.0000 0.26080  0.89280  0.69310  Biso   1.000  H
  C266     1.0000 0.32290  0.87330  0.76550  Biso   1.000  C
  H224     1.0000 0.35120  0.91570  0.76790  Biso   1.000  H
  C267     1.0000 0.29500  0.76470  0.80030  Biso   1.000  C
  H225     1.0000 0.30360  0.73090  0.82720  Biso   1.000  H
  C268     1.0000 0.24190  0.74900  0.75610  Biso   1.000  C
  H226     1.0000 0.21370  0.70650  0.75350  Biso   1.000  H
  C269     1.0000 0.21610  0.94370  0.29370  Biso   1.000  C
  H227     1.0000 0.26370  0.92930  0.30980  Biso   1.000  H
  C270     1.0000 0.19150  0.93700  0.24590  Biso   1.000  C
  H228     1.0000 0.22200  0.91760  0.22840  Biso   1.000  H
  C271     1.0000 0.08590  0.93510  0.24720  Biso   1.000  C
  H229     1.0000 0.04070  0.91460  0.23130  Biso   1.000  H
  C272     1.0000 0.10780  0.94250  0.29920  Biso   1.000  C
  H230     1.0000 0.07750  0.92800  0.31820  Biso   1.000  H
  O96      1.0000 0.95450  0.67610  0.66740  Biso   1.000  O
  C273     1.0000 0.93830  0.70790  0.70090  Biso   1.000  C
  N12      1.0000 0.96070  0.77200  0.72240  Biso   1.000  N
  C274     1.0000 0.01900  0.81070  0.70940  Biso   1.000  C
  H231     1.0000 0.03020  0.78310  0.68360  Biso   1.000  H
  H232     1.0000 0.06190  0.82050  0.73570  Biso   1.000  H
  H233     1.0000 0.99780  0.85500  0.69550  Biso   1.000  H
  C275     1.0000 0.93300  0.80100  0.76280  Biso   1.000  C
  H234     1.0000 0.90130  0.77120  0.77390  Biso   1.000  H
  H235     1.0000 0.90980  0.84550  0.75020  Biso   1.000  H
  H236     1.0000 0.97400  0.81100  0.79050  Biso   1.000  H
  C276     1.0000 0.88140  0.66470  0.72220  Biso   1.000  C
  H237     1.0000 0.86980  0.62060  0.70390  Biso   1.000  H
  H238     1.0000 0.83940  0.69220  0.71820  Biso   1.000  H
  H239     1.0000 0.90270  0.65440  0.75720  Biso   1.000  H
  H240     1.0000 0.98680  0.45410  0.75650  Biso   1.000  H
  Tb13     1.0000 0.49663  0.98161  0.91330  Biso   1.000  Tb
  Tb14     1.0000 0.45337  0.57146  0.94171  Biso   1.000  Tb
  O97      1.0000 0.41180  0.07200  0.86643  Biso   1.000  O
  O98      1.0000 0.49080  0.11040  0.93520  Biso   1.000  O
  O99      1.0000 0.58170  0.89000  0.89580  Biso   1.000  O
  O100     1.0000 0.08900  0.30100  0.61110  Biso   1.000  O
  O101     1.0000 0.08690  0.41030  0.64010  Biso   1.000  O
  O102     1.0000 0.42670  0.45010  0.92500  Biso   1.000  O
  O103     1.0000 0.49450  0.37280  0.98070  Biso   1.000  O
  O104     1.0000 0.43770  0.48380  0.03140  Biso   1.000  O
  O105     1.0000 0.46720  0.45130  0.35770  Biso   1.000  O
  O106     1.0000 0.36010  0.43170  0.36090  Biso   1.000  O
  O107     1.0000 0.08260  0.51140  0.04090  Biso   1.000  O
  O108     1.0000 0.10710  0.49820  0.96940  Biso   1.000  O
  O109     1.0000 0.35710  0.54730  0.97390  Biso   1.000  O
  C277     1.0000 0.43880  0.12240  0.89670  Biso   1.000  C
  C278     1.0000 0.40910  0.19780  0.88610  Biso   1.000  C
  C279     1.0000 0.43850  0.25500  0.91870  Biso   1.000  C
  H241     1.0000 0.47530  0.24530  0.94880  Biso   1.000  H
  C280     1.0000 0.41490  0.32530  0.90750  Biso   1.000  C
  C281     1.0000 0.44870  0.38700  0.94040  Biso   1.000  C
  C282     1.0000 0.35840  0.33860  0.86280  Biso   1.000  C
  H242     1.0000 0.34210  0.38680  0.85450  Biso   1.000  H
  C283     1.0000 0.32700  0.28190  0.83120  Biso   1.000  C
  C284     1.0000 0.35320  0.21180  0.84350  Biso   1.000  C
  H243     1.0000 0.33220  0.17260  0.82200  Biso   1.000  H
  C285     1.0000 0.26910  0.29620  0.78350  Biso   1.000  C
  C286     1.0000 0.25780  0.36540  0.76450  Biso   1.000  C
  H244     1.0000 0.28570  0.40400  0.78270  Biso   1.000  H
  C287     1.0000 0.20670  0.38000  0.71940  Biso   1.000  C
  H245     1.0000 0.20140  0.42820  0.70680  Biso   1.000  H
  C288     1.0000 0.16790  0.25750  0.71120  Biso   1.000  C
  H246     1.0000 0.13580  0.22120  0.69390  Biso   1.000  H
  C289     1.0000 0.22070  0.24150  0.75620  Biso   1.000  C
  H247     1.0000 0.22460  0.19340  0.76900  Biso   1.000  H
  C290     1.0000 0.16380  0.32700  0.69270  Biso   1.000  C
  C291     1.0000 0.10790  0.34580  0.64500  Biso   1.000  C
  C292     1.0000 0.37650  0.50970  0.01390  Biso   1.000  C
  C293     1.0000 0.32420  0.49940  0.04230  Biso   1.000  C
  C294     1.0000 0.25210  0.50690  0.01720  Biso   1.000  C
  H248     1.0000 0.23700  0.51700  0.98220  Biso   1.000  H
  C295     1.0000 0.20250  0.49970  0.04310  Biso   1.000  C
  C296     1.0000 0.12560  0.50280  0.01610  Biso   1.000  C
  C297     1.0000 0.22640  0.48830  0.09570  Biso   1.000  C
  H249     1.0000 0.19290  0.48490  0.11400  Biso   1.000  H
  C298     1.0000 0.29850  0.48200  0.12090  Biso   1.000  C
  C299     1.0000 0.34670  0.48590  0.09360  Biso   1.000  C
  H250     1.0000 0.39580  0.47920  0.11020  Biso   1.000  H
  C300     1.0000 0.32480  0.47150  0.17650  Biso   1.000  C
  C301     1.0000 0.37400  0.45580  0.28070  Biso   1.000  C
  C302     1.0000 0.40120  0.44510  0.33670  Biso   1.000  C
  C303     1.0000 0.27410  0.46610  0.20340  Biso   1.000  C
  H251     1.0000 0.22470  0.46640  0.18620  Biso   1.000  H
  C304     1.0000 0.29920  0.46010  0.25670  Biso   1.000  C
  H252     1.0000 0.26680  0.45890  0.27600  Biso   1.000  H
  C305     1.0000 0.41660  0.49510  0.25590  Biso   1.000  C
  H253     1.0000 0.46010  0.51680  0.27470  Biso   1.000  H
  C306     1.0000 0.39270  0.50120  0.20240  Biso   1.000  C
  H254     1.0000 0.42100  0.52420  0.18470  Biso   1.000  H
  O110     1.0000 0.54990  0.03580  0.85670  Biso   1.000  O
  N13      1.0000 0.57350  0.03710  0.78250  Biso   1.000  N
  C307     1.0000 0.56130  0.06820  0.82200  Biso   1.000  C
  C308     1.0000 0.59890  0.07850  0.74550  Biso   1.000  C
  H255     1.0000 0.60100  0.13030  0.75390  Biso   1.000  H
  H256     1.0000 0.64640  0.06150  0.74650  Biso   1.000  H
  H257     1.0000 0.56620  0.07120  0.71180  Biso   1.000  H
  C309     1.0000 0.55030  0.95960  0.77560  Biso   1.000  C
  H258     1.0000 0.53170  0.94510  0.80300  Biso   1.000  H
  H259     1.0000 0.59090  0.92890  0.77580  Biso   1.000  H
  C310     1.0000 0.58410  0.15290  0.82140  Biso   1.000  C
  H260     1.0000 0.57320  0.17870  0.84890  Biso   1.000  H
  H261     1.0000 0.63510  0.15610  0.82570  Biso   1.000  H
  H262     1.0000 0.55770  0.17490  0.78930  Biso   1.000  H
  O111     1.0000 0.55660  0.89040  0.87870  Biso   1.000  O
  C311     1.0000 0.23020  0.35960  0.77970  Biso   1.000  C
  H263     1.0000 0.23920  0.39280  0.80690  Biso   1.000  H
  C312     1.0000 0.17710  0.37330  0.73450  Biso   1.000  C
  H264     1.0000 0.14880  0.41570  0.73210  Biso   1.000  H
  C313     1.0000 0.20500  0.26470  0.69970  Biso   1.000  C
  H265     1.0000 0.19640  0.23090  0.67280  Biso   1.000  H
  C314     1.0000 0.25810  0.24900  0.74390  Biso   1.000  C
  H266     1.0000 0.28630  0.20650  0.74650  Biso   1.000  H
  C315     1.0000 0.28390  0.44370  0.20630  Biso   1.000  C
  H267     1.0000 0.23630  0.42930  0.19020  Biso   1.000  H
  C316     1.0000 0.30850  0.43700  0.25410  Biso   1.000  C
  H268     1.0000 0.27800  0.41760  0.27160  Biso   1.000  H
  C317     1.0000 0.41410  0.43510  0.25280  Biso   1.000  C
  H269     1.0000 0.45930  0.41460  0.26870  Biso   1.000  H
  C318     1.0000 0.39220  0.44250  0.20080  Biso   1.000  C
  H270     1.0000 0.42250  0.42800  0.18180  Biso   1.000  H
  O112     1.0000 0.54550  0.17610  0.83260  Biso   1.000  O
  C319     1.0000 0.56170  0.20790  0.79910  Biso   1.000  C
  N14      1.0000 0.53930  0.27200  0.77760  Biso   1.000  N
  C320     1.0000 0.48100  0.31070  0.79060  Biso   1.000  C
  H271     1.0000 0.46980  0.28310  0.81640  Biso   1.000  H
  H272     1.0000 0.43810  0.32050  0.76430  Biso   1.000  H
  H273     1.0000 0.50220  0.35500  0.80450  Biso   1.000  H
  C321     1.0000 0.56700  0.30100  0.73720  Biso   1.000  C
  H274     1.0000 0.59870  0.27120  0.72610  Biso   1.000  H
  H275     1.0000 0.59020  0.34550  0.74980  Biso   1.000  H
  H276     1.0000 0.52600  0.31100  0.70950  Biso   1.000  H
  C322     1.0000 0.61860  0.16470  0.77780  Biso   1.000  C
  H277     1.0000 0.63020  0.12060  0.79610  Biso   1.000  H
  H278     1.0000 0.66060  0.19220  0.78180  Biso   1.000  H
  H279     1.0000 0.59730  0.15440  0.74280  Biso   1.000  H
  H280     1.0000 0.51320  0.95410  0.74350  Biso   1.000  H
  Tb15     1.0000 0.99663  0.48161  0.91330  Biso   1.000  Tb
  Tb16     1.0000 0.95337  0.07146  0.94171  Biso   1.000  Tb
  O113     1.0000 0.91180  0.57200  0.86643  Biso   1.000  O
  O114     1.0000 0.99080  0.61040  0.93520  Biso   1.000  O
  O115     1.0000 0.08170  0.39000  0.89580  Biso   1.000  O
  O116     1.0000 0.58900  0.80100  0.61110  Biso   1.000  O
  O117     1.0000 0.58690  0.91030  0.64010  Biso   1.000  O
  O118     1.0000 0.92670  0.95010  0.92500  Biso   1.000  O
  O119     1.0000 0.99450  0.87280  0.98070  Biso   1.000  O
  O120     1.0000 0.93770  0.98380  0.03140  Biso   1.000  O
  O121     1.0000 0.96720  0.95130  0.35770  Biso   1.000  O
  O122     1.0000 0.86010  0.93170  0.36090  Biso   1.000  O
  O123     1.0000 0.58260  0.01140  0.04090  Biso   1.000  O
  O124     1.0000 0.60710  0.99820  0.96940  Biso   1.000  O
  O125     1.0000 0.85710  0.04730  0.97390  Biso   1.000  O
  C323     1.0000 0.93880  0.62240  0.89670  Biso   1.000  C
  C324     1.0000 0.90910  0.69780  0.88610  Biso   1.000  C
  C325     1.0000 0.93850  0.75500  0.91870  Biso   1.000  C
  H281     1.0000 0.97530  0.74530  0.94880  Biso   1.000  H
  C326     1.0000 0.91490  0.82530  0.90750  Biso   1.000  C
  C327     1.0000 0.94870  0.88700  0.94040  Biso   1.000  C
  C328     1.0000 0.85840  0.83860  0.86280  Biso   1.000  C
  H282     1.0000 0.84210  0.88680  0.85450  Biso   1.000  H
  C329     1.0000 0.82700  0.78190  0.83120  Biso   1.000  C
  C330     1.0000 0.85320  0.71180  0.84350  Biso   1.000  C
  H283     1.0000 0.83220  0.67260  0.82200  Biso   1.000  H
  C331     1.0000 0.76910  0.79620  0.78350  Biso   1.000  C
  C332     1.0000 0.75780  0.86540  0.76450  Biso   1.000  C
  H284     1.0000 0.78570  0.90400  0.78270  Biso   1.000  H
  C333     1.0000 0.70670  0.88000  0.71940  Biso   1.000  C
  H285     1.0000 0.70140  0.92820  0.70680  Biso   1.000  H
  C334     1.0000 0.66790  0.75750  0.71120  Biso   1.000  C
  H286     1.0000 0.63580  0.72120  0.69390  Biso   1.000  H
  C335     1.0000 0.72070  0.74150  0.75620  Biso   1.000  C
  H287     1.0000 0.72460  0.69340  0.76900  Biso   1.000  H
  C336     1.0000 0.66380  0.82700  0.69270  Biso   1.000  C
  C337     1.0000 0.60790  0.84580  0.64500  Biso   1.000  C
  C338     1.0000 0.87650  0.00970  0.01390  Biso   1.000  C
  C339     1.0000 0.82420  0.99940  0.04230  Biso   1.000  C
  C340     1.0000 0.75210  0.00690  0.01720  Biso   1.000  C
  H288     1.0000 0.73700  0.01700  0.98220  Biso   1.000  H
  C341     1.0000 0.70250  0.99970  0.04310  Biso   1.000  C
  C342     1.0000 0.62560  0.00280  0.01610  Biso   1.000  C
  C343     1.0000 0.72640  0.98830  0.09570  Biso   1.000  C
  H289     1.0000 0.69290  0.98490  0.11400  Biso   1.000  H
  C344     1.0000 0.79850  0.98200  0.12090  Biso   1.000  C
  C345     1.0000 0.84670  0.98590  0.09360  Biso   1.000  C
  H290     1.0000 0.89580  0.97920  0.11020  Biso   1.000  H
  C346     1.0000 0.82480  0.97150  0.17650  Biso   1.000  C
  C347     1.0000 0.87400  0.95580  0.28070  Biso   1.000  C
  C348     1.0000 0.90120  0.94510  0.33670  Biso   1.000  C
  C349     1.0000 0.77410  0.96610  0.20340  Biso   1.000  C
  H291     1.0000 0.72470  0.96640  0.18620  Biso   1.000  H
  C350     1.0000 0.79920  0.96010  0.25670  Biso   1.000  C
  H292     1.0000 0.76680  0.95890  0.27600  Biso   1.000  H
  C351     1.0000 0.91660  0.99510  0.25590  Biso   1.000  C
  H293     1.0000 0.96010  0.01680  0.27470  Biso   1.000  H
  C352     1.0000 0.89270  0.00120  0.20240  Biso   1.000  C
  H294     1.0000 0.92100  0.02420  0.18470  Biso   1.000  H
  O126     1.0000 0.04990  0.53580  0.85670  Biso   1.000  O
  N15      1.0000 0.07350  0.53710  0.78250  Biso   1.000  N
  C353     1.0000 0.06130  0.56820  0.82200  Biso   1.000  C
  C354     1.0000 0.09890  0.57850  0.74550  Biso   1.000  C
  H295     1.0000 0.10100  0.63030  0.75390  Biso   1.000  H
  H296     1.0000 0.14640  0.56150  0.74650  Biso   1.000  H
  H297     1.0000 0.06620  0.57120  0.71180  Biso   1.000  H
  C355     1.0000 0.05030  0.45960  0.77560  Biso   1.000  C
  H298     1.0000 0.03170  0.44510  0.80300  Biso   1.000  H
  H299     1.0000 0.09090  0.42890  0.77580  Biso   1.000  H
  C356     1.0000 0.08410  0.65290  0.82140  Biso   1.000  C
  H300     1.0000 0.07320  0.67870  0.84890  Biso   1.000  H
  H301     1.0000 0.13510  0.65610  0.82570  Biso   1.000  H
  H302     1.0000 0.05770  0.67490  0.78930  Biso   1.000  H
  O127     1.0000 0.05660  0.39040  0.87870  Biso   1.000  O
  C357     1.0000 0.73020  0.85960  0.77970  Biso   1.000  C
  H303     1.0000 0.73920  0.89280  0.80690  Biso   1.000  H
  C358     1.0000 0.67710  0.87330  0.73450  Biso   1.000  C
  H304     1.0000 0.64880  0.91570  0.73210  Biso   1.000  H
  C359     1.0000 0.70500  0.76470  0.69970  Biso   1.000  C
  H305     1.0000 0.69640  0.73090  0.67280  Biso   1.000  H
  C360     1.0000 0.75810  0.74900  0.74390  Biso   1.000  C
  H306     1.0000 0.78630  0.70650  0.74650  Biso   1.000  H
  C361     1.0000 0.78390  0.94370  0.20630  Biso   1.000  C
  H307     1.0000 0.73630  0.92930  0.19020  Biso   1.000  H
  C362     1.0000 0.80850  0.93700  0.25410  Biso   1.000  C
  H308     1.0000 0.77800  0.91760  0.27160  Biso   1.000  H
  C363     1.0000 0.91410  0.93510  0.25280  Biso   1.000  C
  H309     1.0000 0.95930  0.91460  0.26870  Biso   1.000  H
  C364     1.0000 0.89220  0.94250  0.20080  Biso   1.000  C
  H310     1.0000 0.92250  0.92800  0.18180  Biso   1.000  H
  O128     1.0000 0.04550  0.67610  0.83260  Biso   1.000  O
  C365     1.0000 0.06170  0.70790  0.79910  Biso   1.000  C
  N16      1.0000 0.03930  0.77200  0.77760  Biso   1.000  N
  C366     1.0000 0.98100  0.81070  0.79060  Biso   1.000  C
  H311     1.0000 0.96980  0.78310  0.81640  Biso   1.000  H
  H312     1.0000 0.93810  0.82050  0.76430  Biso   1.000  H
  H313     1.0000 0.00220  0.85500  0.80450  Biso   1.000  H
  C367     1.0000 0.06700  0.80100  0.73720  Biso   1.000  C
  H314     1.0000 0.09870  0.77120  0.72610  Biso   1.000  H
  H315     1.0000 0.09020  0.84550  0.74980  Biso   1.000  H
  H316     1.0000 0.02600  0.81100  0.70950  Biso   1.000  H
  C368     1.0000 0.11860  0.66470  0.77780  Biso   1.000  C
  H317     1.0000 0.13020  0.62060  0.79610  Biso   1.000  H
  H318     1.0000 0.16060  0.69220  0.78180  Biso   1.000  H
  H319     1.0000 0.09730  0.65440  0.74280  Biso   1.000  H
  H320     1.0000 0.01320  0.45410  0.74350  Biso   1.000  H
