data_image0
_cell_length_a       37.1384
_cell_length_b       37.1384
_cell_length_c       74.478
_cell_angle_alpha    90
_cell_angle_beta     90
_cell_angle_gamma    120

_symmetry_space_group_name_H-M    "P 1"
_symmetry_int_tables_number       1

loop_
  _symmetry_equiv_pos_as_xyz
  'x, y, z'

loop_
  _atom_site_label
  _atom_site_occupancy
  _atom_site_fract_x
  _atom_site_fract_y
  _atom_site_fract_z
  _atom_site_thermal_displace_type
  _atom_site_B_iso_or_equiv
  _atom_site_type_symbol
  O1       1.0000 0.47688  0.59632  0.54387  Biso   1.000  O
  O2       1.0000 0.49892  0.57449  0.57524  Biso   1.000  O
  C1       1.0000 0.46730  0.62340  0.54680  Biso   1.000  C
  O3       1.0000 0.44745  0.62632  0.56011  Biso   1.000  O
  C2       1.0000 0.47840  0.65910  0.53401  Biso   1.000  C
  C3       1.0000 0.47430  0.69380  0.53718  Biso   1.000  C
  C4       1.0000 0.49880  0.65730  0.51870  Biso   1.000  C
  O4       1.0000 0.46974  0.60381  0.59171  Biso   1.000  O
  H1       1.0000 0.46040  0.69500  0.54770  Biso   1.000  H
  C5       1.0000 0.49050  0.72650  0.52500  Biso   1.000  C
  C6       1.0000 0.51500  0.69000  0.50651  Biso   1.000  C
  H2       1.0000 0.50160  0.63360  0.51650  Biso   1.000  H
  C7       1.0000 0.51080  0.72470  0.50968  Biso   1.000  C
  H3       1.0000 0.52890  0.68880  0.49600  Biso   1.000  H
  C8       1.0000 0.57440  0.80730  0.48030  Biso   1.000  C
  H4       1.0000 0.58650  0.82700  0.48970  Biso   1.000  H
  C9       1.0000 0.59250  0.81640  0.46330  Biso   1.000  C
  H5       1.0000 0.61690  0.84230  0.46120  Biso   1.000  H
  C10      1.0000 0.63380  0.78550  0.39130  Biso   1.000  C
  H6       1.0000 0.62810  0.76090  0.39750  Biso   1.000  H
  C11      1.0000 0.65010  0.79240  0.37350  Biso   1.000  C
  C12      1.0000 0.65280  0.76120  0.36470  Biso   1.000  C
  C13      1.0000 0.65540  0.73360  0.35890  Biso   1.000  C
  C14      1.0000 0.66360  0.70120  0.35365  Biso   1.000  C
  C15      1.0000 0.68240  0.70010  0.33770  Biso   1.000  C
  C16      1.0000 0.64840  0.66790  0.36549  Biso   1.000  C
  C17      1.0000 0.68610  0.66560  0.33359  Biso   1.000  C
  H7       1.0000 0.69270  0.72290  0.32960  Biso   1.000  H
  H8       1.0000 0.63550  0.66870  0.37640  Biso   1.000  H
  C18      1.0000 0.65210  0.63340  0.36138  Biso   1.000  C
  C19      1.0000 0.71090  0.66960  0.31752  Biso   1.000  C
  C20      1.0000 0.67100  0.63220  0.34543  Biso   1.000  C
  C21      1.0000 0.63440  0.59530  0.37420  Biso   1.000  C
  C22      1.0000 0.74300  0.70760  0.31147  Biso   1.000  C
  C23      1.0000 0.70160  0.63320  0.30848  Biso   1.000  C
  H9       1.0000 0.67350  0.60860  0.34260  Biso   1.000  H
  C24      1.0000 0.60630  0.59170  0.38741  Biso   1.000  C
  C25      1.0000 0.64610  0.56530  0.37266  Biso   1.000  C
  C26      1.0000 0.76580  0.70920  0.29638  Biso   1.000  C
  H10      1.0000 0.74940  0.73250  0.31770  Biso   1.000  H
  H11      1.0000 0.67970  0.60730  0.31260  Biso   1.000  H
  C27      1.0000 0.72440  0.63480  0.29338  Biso   1.000  C
  C28      1.0000 0.58990  0.55790  0.39908  Biso   1.000  C
  H12      1.0000 0.59830  0.61220  0.38850  Biso   1.000  H
  H13      1.0000 0.66530  0.56780  0.36360  Biso   1.000  H
  C29      1.0000 0.62970  0.53150  0.38433  Biso   1.000  C
  C30      1.0000 0.75650  0.67280  0.28734  Biso   1.000  C
  H14      1.0000 0.78770  0.73520  0.29220  Biso   1.000  H
  H15      1.0000 0.71800  0.61000  0.28720  Biso   1.000  H
  C31      1.0000 0.60160  0.52790  0.39754  Biso   1.000  C
  H16      1.0000 0.57070  0.55540  0.40810  Biso   1.000  H
  H17      1.0000 0.63770  0.51100  0.38330  Biso   1.000  H
  C32      1.0000 0.78830  0.67800  0.27300  Biso   1.000  C
  C33      1.0000 0.59200  0.49530  0.41140  Biso   1.000  C
  O5       1.0000 0.81938  0.71268  0.26848  Biso   1.000  O
  O6       1.0000 0.78376  0.64242  0.26872  Biso   1.000  O
  C34      1.0000 0.71560  0.68260  0.34048  Biso   1.000  C
  C35      1.0000 0.71640  0.71860  0.34627  Biso   1.000  C
  H18      1.0000 0.72920  0.74290  0.33910  Biso   1.000  H
  C36      1.0000 0.69850  0.71890  0.36261  Biso   1.000  C
  C37      1.0000 0.67970  0.68330  0.37316  Biso   1.000  C
  H19      1.0000 0.66750  0.68360  0.38430  Biso   1.000  H
  C38      1.0000 0.67890  0.64730  0.36738  Biso   1.000  C
  C39      1.0000 0.69680  0.64700  0.35104  Biso   1.000  C
  H20      1.0000 0.69630  0.62240  0.34710  Biso   1.000  H
  C40      1.0000 0.69570  0.75500  0.36880  Biso   1.000  C
  C41      1.0000 0.69970  0.78520  0.37630  Biso   1.000  C
  C42      1.0000 0.69450  0.81700  0.38460  Biso   1.000  C
  C43      1.0000 0.67890  0.80570  0.40220  Biso   1.000  C
  H21      1.0000 0.67400  0.78070  0.40780  Biso   1.000  H
  C44      1.0000 0.60920  0.82210  0.48920  Biso   1.000  C
  H22      1.0000 0.62040  0.84080  0.49910  Biso   1.000  H
  C45      1.0000 0.63060  0.83150  0.47300  Biso   1.000  C
  H23      1.0000 0.65710  0.85600  0.47210  Biso   1.000  H
  C46      1.0000 0.61440  0.80630  0.45870  Biso   1.000  C
  C47      1.0000 0.57670  0.76720  0.46050  Biso   1.000  C
  H24      1.0000 0.56660  0.74800  0.45080  Biso   1.000  H
  C48      1.0000 0.55530  0.75790  0.47670  Biso   1.000  C
  H25      1.0000 0.52960  0.73260  0.47800  Biso   1.000  H
  C49      1.0000 0.79800  0.67830  0.27520  Biso   1.000  C
  C50      1.0000 0.77630  0.68020  0.29215  Biso   1.000  C
  C51      1.0000 0.79070  0.71760  0.30128  Biso   1.000  C
  H26      1.0000 0.81400  0.74220  0.29690  Biso   1.000  H
  C52      1.0000 0.77090  0.71890  0.31690  Biso   1.000  C
  H27      1.0000 0.78070  0.74450  0.32310  Biso   1.000  H
  C53      1.0000 0.73680  0.68290  0.32338  Biso   1.000  C
  C54      1.0000 0.72240  0.64560  0.31425  Biso   1.000  C
  H28      1.0000 0.69910  0.62100  0.31870  Biso   1.000  H
  C55      1.0000 0.74220  0.64420  0.29863  Biso   1.000  C
  H29      1.0000 0.73250  0.61870  0.29240  Biso   1.000  H
  C56      1.0000 0.62720  0.54020  0.40202  Biso   1.000  C
  C57      1.0000 0.61560  0.57020  0.40448  Biso   1.000  C
  H30      1.0000 0.59560  0.56630  0.41340  Biso   1.000  H
  C58      1.0000 0.63330  0.60580  0.39394  Biso   1.000  C
  H31      1.0000 0.62540  0.62630  0.39560  Biso   1.000  H
  C59      1.0000 0.66250  0.61160  0.38092  Biso   1.000  C
  C60      1.0000 0.67410  0.58160  0.37846  Biso   1.000  C
  H32      1.0000 0.69400  0.58550  0.36960  Biso   1.000  H
  C61      1.0000 0.65640  0.54600  0.38900  Biso   1.000  C
  H33      1.0000 0.66430  0.52550  0.38730  Biso   1.000  H
  C62      1.0000 0.59920  0.50090  0.41250  Biso   1.000  C
  C63      1.0000 0.49650  0.66640  0.53720  Biso   1.000  C
  C64      1.0000 0.49080  0.69970  0.54140  Biso   1.000  C
  H34      1.0000 0.47390  0.69780  0.55130  Biso   1.000  H
  C65      1.0000 0.50990  0.73570  0.53110  Biso   1.000  C
  C66      1.0000 0.53470  0.73840  0.51657  Biso   1.000  C
  C67      1.0000 0.54040  0.70510  0.51237  Biso   1.000  C
  H35      1.0000 0.55730  0.70700  0.50250  Biso   1.000  H
  C68      1.0000 0.52130  0.66910  0.52269  Biso   1.000  C
  H36      1.0000 0.52520  0.64640  0.51980  Biso   1.000  H
  C69      1.0000 0.47240  0.62660  0.54800  Biso   1.000  C
  C70      1.0000 0.53910  0.74960  0.45270  Biso   1.000  C
  C71      1.0000 0.52100  0.74050  0.46960  Biso   1.000  C
  H37      1.0000 0.52700  0.72990  0.44330  Biso   1.000  H
  H38      1.0000 0.49660  0.71460  0.47180  Biso   1.000  H
  O7       1.0000 0.40368  0.88056  0.54387  Biso   1.000  O
  O8       1.0000 0.42551  0.92443  0.57524  Biso   1.000  O
  C72      1.0000 0.37660  0.84390  0.54680  Biso   1.000  C
  O9       1.0000 0.37368  0.82113  0.56011  Biso   1.000  O
  C73      1.0000 0.34090  0.81930  0.53401  Biso   1.000  C
  C74      1.0000 0.30620  0.78050  0.53718  Biso   1.000  C
  C75      1.0000 0.34270  0.84150  0.51870  Biso   1.000  C
  O10      1.0000 0.39619  0.86593  0.59171  Biso   1.000  O
  H39      1.0000 0.30500  0.76540  0.54770  Biso   1.000  H
  C76      1.0000 0.27350  0.76400  0.52500  Biso   1.000  C
  C77      1.0000 0.31000  0.82500  0.50651  Biso   1.000  C
  H40      1.0000 0.36640  0.86800  0.51650  Biso   1.000  H
  C78      1.0000 0.27530  0.78610  0.50968  Biso   1.000  C
  H41      1.0000 0.31120  0.84010  0.49600  Biso   1.000  H
  C79      1.0000 0.19270  0.76710  0.48030  Biso   1.000  C
  H42      1.0000 0.17300  0.75950  0.48970  Biso   1.000  H
  C80      1.0000 0.18360  0.77610  0.46330  Biso   1.000  C
  H43      1.0000 0.15770  0.77460  0.46120  Biso   1.000  H
  C81      1.0000 0.21450  0.84830  0.39130  Biso   1.000  C
  H44      1.0000 0.23910  0.86720  0.39750  Biso   1.000  H
  C82      1.0000 0.20760  0.85770  0.37350  Biso   1.000  C
  C83      1.0000 0.23880  0.89160  0.36470  Biso   1.000  C
  C84      1.0000 0.26640  0.92180  0.35890  Biso   1.000  C
  C85      1.0000 0.29880  0.96240  0.35365  Biso   1.000  C
  C86      1.0000 0.29990  0.98230  0.33770  Biso   1.000  C
  C87      1.0000 0.33210  0.98050  0.36549  Biso   1.000  C
  C88      1.0000 0.33440  0.02050  0.33359  Biso   1.000  C
  H45      1.0000 0.27710  0.96980  0.32960  Biso   1.000  H
  H46      1.0000 0.33130  0.96680  0.37640  Biso   1.000  H
  C89      1.0000 0.36660  0.01870  0.36138  Biso   1.000  C
  C90      1.0000 0.33040  0.04130  0.31752  Biso   1.000  C
  C91      1.0000 0.36780  0.03880  0.34543  Biso   1.000  C
  C92      1.0000 0.40470  0.03910  0.37420  Biso   1.000  C
  C93      1.0000 0.29240  0.03540  0.31147  Biso   1.000  C
  C94      1.0000 0.36680  0.06840  0.30848  Biso   1.000  C
  H47      1.0000 0.39140  0.06490  0.34260  Biso   1.000  H
  C95      1.0000 0.40830  0.01460  0.38741  Biso   1.000  C
  C96      1.0000 0.43470  0.08080  0.37266  Biso   1.000  C
  C97      1.0000 0.29080  0.05660  0.29638  Biso   1.000  C
  H48      1.0000 0.26750  0.01690  0.31770  Biso   1.000  H
  H49      1.0000 0.39270  0.07240  0.31260  Biso   1.000  H
  C98      1.0000 0.36520  0.08960  0.29338  Biso   1.000  C
  C99      1.0000 0.44210  0.03200  0.39908  Biso   1.000  C
  H50      1.0000 0.38780  0.98610  0.38850  Biso   1.000  H
  H51      1.0000 0.43220  0.09750  0.36360  Biso   1.000  H
  C100     1.0000 0.46850  0.09820  0.38433  Biso   1.000  C
  C101     1.0000 0.32720  0.08370  0.28734  Biso   1.000  C
  H52      1.0000 0.26480  0.05250  0.29220  Biso   1.000  H
  H53      1.0000 0.39000  0.10800  0.28720  Biso   1.000  H
  C102     1.0000 0.47210  0.07370  0.39754  Biso   1.000  C
  H54      1.0000 0.44460  0.01530  0.40810  Biso   1.000  H
  H55      1.0000 0.48900  0.12670  0.38330  Biso   1.000  H
  C103     1.0000 0.32200  0.11030  0.27300  Biso   1.000  C
  C104     1.0000 0.50470  0.09670  0.41140  Biso   1.000  C
  O11      1.0000 0.28732  0.10670  0.26848  Biso   1.000  O
  O12      1.0000 0.35758  0.14134  0.26872  Biso   1.000  O
  C105     1.0000 0.31740  0.03300  0.34048  Biso   1.000  C
  C106     1.0000 0.28140  0.99780  0.34627  Biso   1.000  C
  H56      1.0000 0.25710  0.98630  0.33910  Biso   1.000  H
  C107     1.0000 0.28110  0.97960  0.36261  Biso   1.000  C
  C108     1.0000 0.31670  0.99640  0.37316  Biso   1.000  C
  H57      1.0000 0.31640  0.98390  0.38430  Biso   1.000  H
  C109     1.0000 0.35270  0.03160  0.36738  Biso   1.000  C
  C110     1.0000 0.35300  0.04980  0.35104  Biso   1.000  C
  H58      1.0000 0.37760  0.07390  0.34710  Biso   1.000  H
  C111     1.0000 0.24500  0.94070  0.36880  Biso   1.000  C
  C112     1.0000 0.21480  0.91450  0.37630  Biso   1.000  C
  C113     1.0000 0.18300  0.87750  0.38460  Biso   1.000  C
  C114     1.0000 0.19430  0.87320  0.40220  Biso   1.000  C
  H59      1.0000 0.21930  0.89330  0.40780  Biso   1.000  H
  C115     1.0000 0.17790  0.78710  0.48920  Biso   1.000  C
  H60      1.0000 0.15920  0.77960  0.49910  Biso   1.000  H
  C116     1.0000 0.16850  0.79910  0.47300  Biso   1.000  C
  H61      1.0000 0.14400  0.80110  0.47210  Biso   1.000  H
  C117     1.0000 0.19370  0.80810  0.45870  Biso   1.000  C
  C118     1.0000 0.23280  0.80950  0.46050  Biso   1.000  C
  H62      1.0000 0.25200  0.81860  0.45080  Biso   1.000  H
  C119     1.0000 0.24210  0.79740  0.47670  Biso   1.000  C
  H63      1.0000 0.26740  0.79700  0.47800  Biso   1.000  H
  C120     1.0000 0.32170  0.11970  0.27520  Biso   1.000  C
  C121     1.0000 0.31980  0.09610  0.29215  Biso   1.000  C
  C122     1.0000 0.28240  0.07310  0.30128  Biso   1.000  C
  H64      1.0000 0.25780  0.07180  0.29690  Biso   1.000  H
  C123     1.0000 0.28110  0.05200  0.31690  Biso   1.000  C
  H65      1.0000 0.25550  0.03620  0.32310  Biso   1.000  H
  C124     1.0000 0.31710  0.05390  0.32338  Biso   1.000  C
  C125     1.0000 0.35440  0.07680  0.31425  Biso   1.000  C
  H66      1.0000 0.37900  0.07810  0.31870  Biso   1.000  H
  C126     1.0000 0.35580  0.09800  0.29863  Biso   1.000  C
  H67      1.0000 0.38130  0.11380  0.29240  Biso   1.000  H
  C127     1.0000 0.45980  0.08700  0.40202  Biso   1.000  C
  C128     1.0000 0.42980  0.04540  0.40448  Biso   1.000  C
  H68      1.0000 0.43370  0.02930  0.41340  Biso   1.000  H
  C129     1.0000 0.39420  0.02750  0.39394  Biso   1.000  C
  H69      1.0000 0.37370  0.99910  0.39560  Biso   1.000  H
  C130     1.0000 0.38840  0.05090  0.38092  Biso   1.000  C
  C131     1.0000 0.41840  0.09250  0.37846  Biso   1.000  C
  H70      1.0000 0.41450  0.10850  0.36960  Biso   1.000  H
  C132     1.0000 0.45400  0.11040  0.38900  Biso   1.000  C
  H71      1.0000 0.47450  0.13880  0.38730  Biso   1.000  H
  C133     1.0000 0.49910  0.09830  0.41250  Biso   1.000  C
  C134     1.0000 0.33360  0.83010  0.53720  Biso   1.000  C
  C135     1.0000 0.30030  0.79110  0.54140  Biso   1.000  C
  H72      1.0000 0.30220  0.77610  0.55130  Biso   1.000  H
  C136     1.0000 0.26430  0.77420  0.53110  Biso   1.000  C
  C137     1.0000 0.26160  0.79630  0.51657  Biso   1.000  C
  C138     1.0000 0.29490  0.83530  0.51237  Biso   1.000  C
  H73      1.0000 0.29300  0.85030  0.50250  Biso   1.000  H
  C139     1.0000 0.33090  0.85220  0.52269  Biso   1.000  C
  H74      1.0000 0.35360  0.87880  0.51980  Biso   1.000  H
  C140     1.0000 0.37340  0.84580  0.54800  Biso   1.000  C
  C141     1.0000 0.25040  0.78950  0.45270  Biso   1.000  C
  C142     1.0000 0.25950  0.78050  0.46960  Biso   1.000  C
  H75      1.0000 0.27010  0.79710  0.44330  Biso   1.000  H
  H76      1.0000 0.28540  0.78200  0.47180  Biso   1.000  H
  O13      1.0000 0.11944  0.52312  0.54387  Biso   1.000  O
  O14      1.0000 0.07557  0.50108  0.57524  Biso   1.000  O
  C143     1.0000 0.15610  0.53270  0.54680  Biso   1.000  C
  O15      1.0000 0.17887  0.55255  0.56011  Biso   1.000  O
  C144     1.0000 0.18070  0.52160  0.53401  Biso   1.000  C
  C145     1.0000 0.21950  0.52570  0.53718  Biso   1.000  C
  C146     1.0000 0.15850  0.50120  0.51870  Biso   1.000  C
  O16      1.0000 0.13407  0.53026  0.59171  Biso   1.000  O
  H77      1.0000 0.23460  0.53960  0.54770  Biso   1.000  H
  C147     1.0000 0.23600  0.50950  0.52500  Biso   1.000  C
  C148     1.0000 0.17500  0.48500  0.50651  Biso   1.000  C
  H78      1.0000 0.13200  0.49840  0.51650  Biso   1.000  H
  C149     1.0000 0.21390  0.48920  0.50968  Biso   1.000  C
  H79      1.0000 0.15990  0.47110  0.49600  Biso   1.000  H
  C150     1.0000 0.23290  0.42560  0.48030  Biso   1.000  C
  H80      1.0000 0.24050  0.41350  0.48970  Biso   1.000  H
  C151     1.0000 0.22390  0.40750  0.46330  Biso   1.000  C
  H81      1.0000 0.22540  0.38310  0.46120  Biso   1.000  H
  C152     1.0000 0.15170  0.36620  0.39130  Biso   1.000  C
  H82      1.0000 0.13280  0.37190  0.39750  Biso   1.000  H
  C153     1.0000 0.14230  0.34990  0.37350  Biso   1.000  C
  C154     1.0000 0.10840  0.34720  0.36470  Biso   1.000  C
  C155     1.0000 0.07820  0.34460  0.35890  Biso   1.000  C
  C156     1.0000 0.03760  0.33640  0.35365  Biso   1.000  C
  C157     1.0000 0.01770  0.31760  0.33770  Biso   1.000  C
  C158     1.0000 0.01950  0.35160  0.36549  Biso   1.000  C
  C159     1.0000 0.97950  0.31390  0.33359  Biso   1.000  C
  H83      1.0000 0.03020  0.30730  0.32960  Biso   1.000  H
  H84      1.0000 0.03320  0.36450  0.37640  Biso   1.000  H
  C160     1.0000 0.98130  0.34790  0.36138  Biso   1.000  C
  C161     1.0000 0.95870  0.28910  0.31752  Biso   1.000  C
  C162     1.0000 0.96120  0.32900  0.34543  Biso   1.000  C
  C163     1.0000 0.96090  0.36560  0.37420  Biso   1.000  C
  C164     1.0000 0.96460  0.25700  0.31147  Biso   1.000  C
  C165     1.0000 0.93160  0.29840  0.30848  Biso   1.000  C
  H85      1.0000 0.93510  0.32650  0.34260  Biso   1.000  H
  C166     1.0000 0.98540  0.39370  0.38741  Biso   1.000  C
  C167     1.0000 0.91920  0.35390  0.37266  Biso   1.000  C
  C168     1.0000 0.94340  0.23420  0.29638  Biso   1.000  C
  H86      1.0000 0.98310  0.25060  0.31770  Biso   1.000  H
  H87      1.0000 0.92760  0.32030  0.31260  Biso   1.000  H
  C169     1.0000 0.91040  0.27560  0.29338  Biso   1.000  C
  C170     1.0000 0.96800  0.41010  0.39908  Biso   1.000  C
  H88      1.0000 0.01390  0.40170  0.38850  Biso   1.000  H
  H89      1.0000 0.90250  0.33470  0.36360  Biso   1.000  H
  C171     1.0000 0.90180  0.37030  0.38433  Biso   1.000  C
  C172     1.0000 0.91630  0.24350  0.28734  Biso   1.000  C
  H90      1.0000 0.94750  0.21230  0.29220  Biso   1.000  H
  H91      1.0000 0.89200  0.28200  0.28720  Biso   1.000  H
  C173     1.0000 0.92630  0.39840  0.39754  Biso   1.000  C
  H92      1.0000 0.98470  0.42930  0.40810  Biso   1.000  H
  H93      1.0000 0.87330  0.36230  0.38330  Biso   1.000  H
  C174     1.0000 0.88970  0.21170  0.27300  Biso   1.000  C
  C175     1.0000 0.90330  0.40800  0.41140  Biso   1.000  C
  O17      1.0000 0.89330  0.18062  0.26848  Biso   1.000  O
  O18      1.0000 0.85866  0.21624  0.26872  Biso   1.000  O
  C176     1.0000 0.96700  0.28440  0.34048  Biso   1.000  C
  C177     1.0000 0.00220  0.28360  0.34627  Biso   1.000  C
  H94      1.0000 0.01370  0.27080  0.33910  Biso   1.000  H
  C178     1.0000 0.02040  0.30150  0.36261  Biso   1.000  C
  C179     1.0000 0.00360  0.32030  0.37316  Biso   1.000  C
  H95      1.0000 0.01610  0.33250  0.38430  Biso   1.000  H
  C180     1.0000 0.96840  0.32110  0.36738  Biso   1.000  C
  C181     1.0000 0.95020  0.30320  0.35104  Biso   1.000  C
  H96      1.0000 0.92610  0.30370  0.34710  Biso   1.000  H
  C182     1.0000 0.05930  0.30430  0.36880  Biso   1.000  C
  C183     1.0000 0.08550  0.30030  0.37630  Biso   1.000  C
  C184     1.0000 0.12250  0.30550  0.38460  Biso   1.000  C
  C185     1.0000 0.12680  0.32110  0.40220  Biso   1.000  C
  H97      1.0000 0.10670  0.32600  0.40780  Biso   1.000  H
  C186     1.0000 0.21290  0.39080  0.48920  Biso   1.000  C
  H98      1.0000 0.22040  0.37960  0.49910  Biso   1.000  H
  C187     1.0000 0.20090  0.36940  0.47300  Biso   1.000  C
  H99      1.0000 0.19890  0.34290  0.47210  Biso   1.000  H
  C188     1.0000 0.19190  0.38560  0.45870  Biso   1.000  C
  C189     1.0000 0.19050  0.42330  0.46050  Biso   1.000  C
  H100     1.0000 0.18140  0.43340  0.45080  Biso   1.000  H
  C190     1.0000 0.20260  0.44470  0.47670  Biso   1.000  C
  H101     1.0000 0.20300  0.47040  0.47800  Biso   1.000  H
  C191     1.0000 0.88030  0.20200  0.27520  Biso   1.000  C
  C192     1.0000 0.90390  0.22370  0.29215  Biso   1.000  C
  C193     1.0000 0.92690  0.20930  0.30128  Biso   1.000  C
  H102     1.0000 0.92820  0.18600  0.29690  Biso   1.000  H
  C194     1.0000 0.94800  0.22910  0.31690  Biso   1.000  C
  H103     1.0000 0.96380  0.21930  0.32310  Biso   1.000  H
  C195     1.0000 0.94610  0.26320  0.32338  Biso   1.000  C
  C196     1.0000 0.92320  0.27760  0.31425  Biso   1.000  C
  H104     1.0000 0.92190  0.30090  0.31870  Biso   1.000  H
  C197     1.0000 0.90200  0.25780  0.29863  Biso   1.000  C
  H105     1.0000 0.88620  0.26750  0.29240  Biso   1.000  H
  C198     1.0000 0.91300  0.37280  0.40202  Biso   1.000  C
  C199     1.0000 0.95460  0.38440  0.40448  Biso   1.000  C
  H106     1.0000 0.97070  0.40440  0.41340  Biso   1.000  H
  C200     1.0000 0.97250  0.36670  0.39394  Biso   1.000  C
  H107     1.0000 0.00090  0.37460  0.39560  Biso   1.000  H
  C201     1.0000 0.94910  0.33750  0.38092  Biso   1.000  C
  C202     1.0000 0.90750  0.32590  0.37846  Biso   1.000  C
  H108     1.0000 0.89150  0.30600  0.36960  Biso   1.000  H
  C203     1.0000 0.88960  0.34360  0.38900  Biso   1.000  C
  H109     1.0000 0.86120  0.33570  0.38730  Biso   1.000  H
  C204     1.0000 0.90170  0.40080  0.41250  Biso   1.000  C
  C205     1.0000 0.16990  0.50350  0.53720  Biso   1.000  C
  C206     1.0000 0.20890  0.50920  0.54140  Biso   1.000  C
  H110     1.0000 0.22390  0.52610  0.55130  Biso   1.000  H
  C207     1.0000 0.22580  0.49010  0.53110  Biso   1.000  C
  C208     1.0000 0.20370  0.46530  0.51657  Biso   1.000  C
  C209     1.0000 0.16470  0.45960  0.51237  Biso   1.000  C
  H111     1.0000 0.14970  0.44270  0.50250  Biso   1.000  H
  C210     1.0000 0.14780  0.47870  0.52269  Biso   1.000  C
  H112     1.0000 0.12120  0.47480  0.51980  Biso   1.000  H
  C211     1.0000 0.15420  0.52760  0.54800  Biso   1.000  C
  C212     1.0000 0.21050  0.46090  0.45270  Biso   1.000  C
  C213     1.0000 0.21950  0.47900  0.46960  Biso   1.000  C
  H113     1.0000 0.20290  0.47300  0.44330  Biso   1.000  H
  H114     1.0000 0.21800  0.50340  0.47180  Biso   1.000  H
  O19      1.0000 0.52312  0.40368  0.04387  Biso   1.000  O
  O20      1.0000 0.50108  0.42551  0.07524  Biso   1.000  O
  C214     1.0000 0.53270  0.37660  0.04680  Biso   1.000  C
  O21      1.0000 0.55255  0.37368  0.06011  Biso   1.000  O
  C215     1.0000 0.52160  0.34090  0.03401  Biso   1.000  C
  C216     1.0000 0.52570  0.30620  0.03718  Biso   1.000  C
  C217     1.0000 0.50120  0.34270  0.01870  Biso   1.000  C
  O22      1.0000 0.53026  0.39619  0.09171  Biso   1.000  O
  H115     1.0000 0.53960  0.30500  0.04770  Biso   1.000  H
  C218     1.0000 0.50950  0.27350  0.02500  Biso   1.000  C
  C219     1.0000 0.48500  0.31000  0.00651  Biso   1.000  C
  H116     1.0000 0.49840  0.36640  0.01650  Biso   1.000  H
  C220     1.0000 0.48920  0.27530  0.00968  Biso   1.000  C
  H117     1.0000 0.47110  0.31120  0.99600  Biso   1.000  H
  C221     1.0000 0.42560  0.19270  0.98030  Biso   1.000  C
  H118     1.0000 0.41350  0.17300  0.98970  Biso   1.000  H
  C222     1.0000 0.40750  0.18360  0.96330  Biso   1.000  C
  H119     1.0000 0.38310  0.15770  0.96120  Biso   1.000  H
  C223     1.0000 0.36620  0.21450  0.89130  Biso   1.000  C
  H120     1.0000 0.37190  0.23910  0.89750  Biso   1.000  H
  C224     1.0000 0.34990  0.20760  0.87350  Biso   1.000  C
  C225     1.0000 0.34720  0.23880  0.86470  Biso   1.000  C
  C226     1.0000 0.34460  0.26640  0.85890  Biso   1.000  C
  C227     1.0000 0.33640  0.29880  0.85365  Biso   1.000  C
  C228     1.0000 0.31760  0.29990  0.83770  Biso   1.000  C
  C229     1.0000 0.35160  0.33210  0.86549  Biso   1.000  C
  C230     1.0000 0.31390  0.33440  0.83359  Biso   1.000  C
  H121     1.0000 0.30730  0.27710  0.82960  Biso   1.000  H
  H122     1.0000 0.36450  0.33130  0.87640  Biso   1.000  H
  C231     1.0000 0.34790  0.36660  0.86138  Biso   1.000  C
  C232     1.0000 0.28910  0.33040  0.81752  Biso   1.000  C
  C233     1.0000 0.32900  0.36780  0.84543  Biso   1.000  C
  C234     1.0000 0.36560  0.40470  0.87420  Biso   1.000  C
  C235     1.0000 0.25700  0.29240  0.81147  Biso   1.000  C
  C236     1.0000 0.29840  0.36680  0.80848  Biso   1.000  C
  H123     1.0000 0.32650  0.39140  0.84260  Biso   1.000  H
  C237     1.0000 0.39370  0.40830  0.88741  Biso   1.000  C
  C238     1.0000 0.35390  0.43470  0.87266  Biso   1.000  C
  C239     1.0000 0.23420  0.29080  0.79638  Biso   1.000  C
  H124     1.0000 0.25060  0.26750  0.81770  Biso   1.000  H
  H125     1.0000 0.32030  0.39270  0.81260  Biso   1.000  H
  C240     1.0000 0.27560  0.36520  0.79338  Biso   1.000  C
  C241     1.0000 0.41010  0.44210  0.89908  Biso   1.000  C
  H126     1.0000 0.40170  0.38780  0.88850  Biso   1.000  H
  H127     1.0000 0.33470  0.43220  0.86360  Biso   1.000  H
  C242     1.0000 0.37030  0.46850  0.88433  Biso   1.000  C
  C243     1.0000 0.24350  0.32720  0.78734  Biso   1.000  C
  H128     1.0000 0.21230  0.26480  0.79220  Biso   1.000  H
  H129     1.0000 0.28200  0.39000  0.78720  Biso   1.000  H
  C244     1.0000 0.39840  0.47210  0.89754  Biso   1.000  C
  H130     1.0000 0.42930  0.44460  0.90810  Biso   1.000  H
  H131     1.0000 0.36230  0.48900  0.88330  Biso   1.000  H
  C245     1.0000 0.21170  0.32200  0.77300  Biso   1.000  C
  C246     1.0000 0.40800  0.50470  0.91140  Biso   1.000  C
  O23      1.0000 0.18062  0.28732  0.76848  Biso   1.000  O
  O24      1.0000 0.21624  0.35758  0.76872  Biso   1.000  O
  C247     1.0000 0.28440  0.31740  0.84048  Biso   1.000  C
  C248     1.0000 0.28360  0.28140  0.84627  Biso   1.000  C
  H132     1.0000 0.27080  0.25710  0.83910  Biso   1.000  H
  C249     1.0000 0.30150  0.28110  0.86261  Biso   1.000  C
  C250     1.0000 0.32030  0.31670  0.87316  Biso   1.000  C
  H133     1.0000 0.33250  0.31640  0.88430  Biso   1.000  H
  C251     1.0000 0.32110  0.35270  0.86738  Biso   1.000  C
  C252     1.0000 0.30320  0.35300  0.85104  Biso   1.000  C
  H134     1.0000 0.30370  0.37760  0.84710  Biso   1.000  H
  C253     1.0000 0.30430  0.24500  0.86880  Biso   1.000  C
  C254     1.0000 0.30030  0.21480  0.87630  Biso   1.000  C
  C255     1.0000 0.30550  0.18300  0.88460  Biso   1.000  C
  C256     1.0000 0.32110  0.19430  0.90220  Biso   1.000  C
  H135     1.0000 0.32600  0.21930  0.90780  Biso   1.000  H
  C257     1.0000 0.39080  0.17790  0.98920  Biso   1.000  C
  H136     1.0000 0.37960  0.15920  0.99910  Biso   1.000  H
  C258     1.0000 0.36940  0.16850  0.97300  Biso   1.000  C
  H137     1.0000 0.34290  0.14400  0.97210  Biso   1.000  H
  C259     1.0000 0.38560  0.19370  0.95870  Biso   1.000  C
  C260     1.0000 0.42330  0.23280  0.96050  Biso   1.000  C
  H138     1.0000 0.43340  0.25200  0.95080  Biso   1.000  H
  C261     1.0000 0.44470  0.24210  0.97670  Biso   1.000  C
  H139     1.0000 0.47040  0.26740  0.97800  Biso   1.000  H
  C262     1.0000 0.20200  0.32170  0.77520  Biso   1.000  C
  C263     1.0000 0.22370  0.31980  0.79215  Biso   1.000  C
  C264     1.0000 0.20930  0.28240  0.80128  Biso   1.000  C
  H140     1.0000 0.18600  0.25780  0.79690  Biso   1.000  H
  C265     1.0000 0.22910  0.28110  0.81690  Biso   1.000  C
  H141     1.0000 0.21930  0.25550  0.82310  Biso   1.000  H
  C266     1.0000 0.26320  0.31710  0.82338  Biso   1.000  C
  C267     1.0000 0.27760  0.35440  0.81425  Biso   1.000  C
  H142     1.0000 0.30090  0.37900  0.81870  Biso   1.000  H
  C268     1.0000 0.25780  0.35580  0.79863  Biso   1.000  C
  H143     1.0000 0.26750  0.38130  0.79240  Biso   1.000  H
  C269     1.0000 0.37280  0.45980  0.90202  Biso   1.000  C
  C270     1.0000 0.38440  0.42980  0.90448  Biso   1.000  C
  H144     1.0000 0.40440  0.43370  0.91340  Biso   1.000  H
  C271     1.0000 0.36670  0.39420  0.89394  Biso   1.000  C
  H145     1.0000 0.37460  0.37370  0.89560  Biso   1.000  H
  C272     1.0000 0.33750  0.38840  0.88092  Biso   1.000  C
  C273     1.0000 0.32590  0.41840  0.87846  Biso   1.000  C
  H146     1.0000 0.30600  0.41450  0.86960  Biso   1.000  H
  C274     1.0000 0.34360  0.45400  0.88900  Biso   1.000  C
  H147     1.0000 0.33570  0.47450  0.88730  Biso   1.000  H
  C275     1.0000 0.40080  0.49910  0.91250  Biso   1.000  C
  C276     1.0000 0.50350  0.33360  0.03720  Biso   1.000  C
  C277     1.0000 0.50920  0.30030  0.04140  Biso   1.000  C
  H148     1.0000 0.52610  0.30220  0.05130  Biso   1.000  H
  C278     1.0000 0.49010  0.26430  0.03110  Biso   1.000  C
  C279     1.0000 0.46530  0.26160  0.01657  Biso   1.000  C
  C280     1.0000 0.45960  0.29490  0.01237  Biso   1.000  C
  H149     1.0000 0.44270  0.29300  0.00250  Biso   1.000  H
  C281     1.0000 0.47870  0.33090  0.02269  Biso   1.000  C
  H150     1.0000 0.47480  0.35360  0.01980  Biso   1.000  H
  C282     1.0000 0.52760  0.37340  0.04800  Biso   1.000  C
  C283     1.0000 0.46090  0.25040  0.95270  Biso   1.000  C
  C284     1.0000 0.47900  0.25950  0.96960  Biso   1.000  C
  H151     1.0000 0.47300  0.27010  0.94330  Biso   1.000  H
  H152     1.0000 0.50340  0.28540  0.97180  Biso   1.000  H
  O25      1.0000 0.59632  0.11944  0.04387  Biso   1.000  O
  O26      1.0000 0.57449  0.07557  0.07524  Biso   1.000  O
  C285     1.0000 0.62340  0.15610  0.04680  Biso   1.000  C
  O27      1.0000 0.62632  0.17887  0.06011  Biso   1.000  O
  C286     1.0000 0.65910  0.18070  0.03401  Biso   1.000  C
  C287     1.0000 0.69380  0.21950  0.03718  Biso   1.000  C
  C288     1.0000 0.65730  0.15850  0.01870  Biso   1.000  C
  O28      1.0000 0.60381  0.13407  0.09171  Biso   1.000  O
  H153     1.0000 0.69500  0.23460  0.04770  Biso   1.000  H
  C289     1.0000 0.72650  0.23600  0.02500  Biso   1.000  C
  C290     1.0000 0.69000  0.17500  0.00651  Biso   1.000  C
  H154     1.0000 0.63360  0.13200  0.01650  Biso   1.000  H
  C291     1.0000 0.72470  0.21390  0.00968  Biso   1.000  C
  H155     1.0000 0.68880  0.15990  0.99600  Biso   1.000  H
  C292     1.0000 0.80730  0.23290  0.98030  Biso   1.000  C
  H156     1.0000 0.82700  0.24050  0.98970  Biso   1.000  H
  C293     1.0000 0.81640  0.22390  0.96330  Biso   1.000  C
  H157     1.0000 0.84230  0.22540  0.96120  Biso   1.000  H
  C294     1.0000 0.78550  0.15170  0.89130  Biso   1.000  C
  H158     1.0000 0.76090  0.13280  0.89750  Biso   1.000  H
  C295     1.0000 0.79240  0.14230  0.87350  Biso   1.000  C
  C296     1.0000 0.76120  0.10840  0.86470  Biso   1.000  C
  C297     1.0000 0.73360  0.07820  0.85890  Biso   1.000  C
  C298     1.0000 0.70120  0.03760  0.85365  Biso   1.000  C
  C299     1.0000 0.70010  0.01770  0.83770  Biso   1.000  C
  C300     1.0000 0.66790  0.01950  0.86549  Biso   1.000  C
  C301     1.0000 0.66560  0.97950  0.83359  Biso   1.000  C
  H159     1.0000 0.72290  0.03020  0.82960  Biso   1.000  H
  H160     1.0000 0.66870  0.03320  0.87640  Biso   1.000  H
  C302     1.0000 0.63340  0.98130  0.86138  Biso   1.000  C
  C303     1.0000 0.66960  0.95870  0.81752  Biso   1.000  C
  C304     1.0000 0.63220  0.96120  0.84543  Biso   1.000  C
  C305     1.0000 0.59530  0.96090  0.87420  Biso   1.000  C
  C306     1.0000 0.70760  0.96460  0.81147  Biso   1.000  C
  C307     1.0000 0.63320  0.93160  0.80848  Biso   1.000  C
  H161     1.0000 0.60860  0.93510  0.84260  Biso   1.000  H
  C308     1.0000 0.59170  0.98540  0.88741  Biso   1.000  C
  C309     1.0000 0.56530  0.91920  0.87266  Biso   1.000  C
  C310     1.0000 0.70920  0.94340  0.79638  Biso   1.000  C
  H162     1.0000 0.73250  0.98310  0.81770  Biso   1.000  H
  H163     1.0000 0.60730  0.92760  0.81260  Biso   1.000  H
  C311     1.0000 0.63480  0.91040  0.79338  Biso   1.000  C
  C312     1.0000 0.55790  0.96800  0.89908  Biso   1.000  C
  H164     1.0000 0.61220  0.01390  0.88850  Biso   1.000  H
  H165     1.0000 0.56780  0.90250  0.86360  Biso   1.000  H
  C313     1.0000 0.53150  0.90180  0.88433  Biso   1.000  C
  C314     1.0000 0.67280  0.91630  0.78734  Biso   1.000  C
  H166     1.0000 0.73520  0.94750  0.79220  Biso   1.000  H
  H167     1.0000 0.61000  0.89200  0.78720  Biso   1.000  H
  C315     1.0000 0.52790  0.92630  0.89754  Biso   1.000  C
  H168     1.0000 0.55540  0.98470  0.90810  Biso   1.000  H
  H169     1.0000 0.51100  0.87330  0.88330  Biso   1.000  H
  C316     1.0000 0.67800  0.88970  0.77300  Biso   1.000  C
  C317     1.0000 0.49530  0.90330  0.91140  Biso   1.000  C
  O29      1.0000 0.71268  0.89330  0.76848  Biso   1.000  O
  O30      1.0000 0.64242  0.85866  0.76872  Biso   1.000  O
  C318     1.0000 0.68260  0.96700  0.84048  Biso   1.000  C
  C319     1.0000 0.71860  0.00220  0.84627  Biso   1.000  C
  H170     1.0000 0.74290  0.01370  0.83910  Biso   1.000  H
  C320     1.0000 0.71890  0.02040  0.86261  Biso   1.000  C
  C321     1.0000 0.68330  0.00360  0.87316  Biso   1.000  C
  H171     1.0000 0.68360  0.01610  0.88430  Biso   1.000  H
  C322     1.0000 0.64730  0.96840  0.86738  Biso   1.000  C
  C323     1.0000 0.64700  0.95020  0.85104  Biso   1.000  C
  H172     1.0000 0.62240  0.92610  0.84710  Biso   1.000  H
  C324     1.0000 0.75500  0.05930  0.86880  Biso   1.000  C
  C325     1.0000 0.78520  0.08550  0.87630  Biso   1.000  C
  C326     1.0000 0.81700  0.12250  0.88460  Biso   1.000  C
  C327     1.0000 0.80570  0.12680  0.90220  Biso   1.000  C
  H173     1.0000 0.78070  0.10670  0.90780  Biso   1.000  H
  C328     1.0000 0.82210  0.21290  0.98920  Biso   1.000  C
  H174     1.0000 0.84080  0.22040  0.99910  Biso   1.000  H
  C329     1.0000 0.83150  0.20090  0.97300  Biso   1.000  C
  H175     1.0000 0.85600  0.19890  0.97210  Biso   1.000  H
  C330     1.0000 0.80630  0.19190  0.95870  Biso   1.000  C
  C331     1.0000 0.76720  0.19050  0.96050  Biso   1.000  C
  H176     1.0000 0.74800  0.18140  0.95080  Biso   1.000  H
  C332     1.0000 0.75790  0.20260  0.97670  Biso   1.000  C
  H177     1.0000 0.73260  0.20300  0.97800  Biso   1.000  H
  C333     1.0000 0.67830  0.88030  0.77520  Biso   1.000  C
  C334     1.0000 0.68020  0.90390  0.79215  Biso   1.000  C
  C335     1.0000 0.71760  0.92690  0.80128  Biso   1.000  C
  H178     1.0000 0.74220  0.92820  0.79690  Biso   1.000  H
  C336     1.0000 0.71890  0.94800  0.81690  Biso   1.000  C
  H179     1.0000 0.74450  0.96380  0.82310  Biso   1.000  H
  C337     1.0000 0.68290  0.94610  0.82338  Biso   1.000  C
  C338     1.0000 0.64560  0.92320  0.81425  Biso   1.000  C
  H180     1.0000 0.62100  0.92190  0.81870  Biso   1.000  H
  C339     1.0000 0.64420  0.90200  0.79863  Biso   1.000  C
  H181     1.0000 0.61870  0.88620  0.79240  Biso   1.000  H
  C340     1.0000 0.54020  0.91300  0.90202  Biso   1.000  C
  C341     1.0000 0.57020  0.95460  0.90448  Biso   1.000  C
  H182     1.0000 0.56630  0.97070  0.91340  Biso   1.000  H
  C342     1.0000 0.60580  0.97250  0.89394  Biso   1.000  C
  H183     1.0000 0.62630  0.00090  0.89560  Biso   1.000  H
  C343     1.0000 0.61160  0.94910  0.88092  Biso   1.000  C
  C344     1.0000 0.58160  0.90750  0.87846  Biso   1.000  C
  H184     1.0000 0.58550  0.89150  0.86960  Biso   1.000  H
  C345     1.0000 0.54600  0.88960  0.88900  Biso   1.000  C
  H185     1.0000 0.52550  0.86120  0.88730  Biso   1.000  H
  C346     1.0000 0.50090  0.90170  0.91250  Biso   1.000  C
  C347     1.0000 0.66640  0.16990  0.03720  Biso   1.000  C
  C348     1.0000 0.69970  0.20890  0.04140  Biso   1.000  C
  H186     1.0000 0.69780  0.22390  0.05130  Biso   1.000  H
  C349     1.0000 0.73570  0.22580  0.03110  Biso   1.000  C
  C350     1.0000 0.73840  0.20370  0.01657  Biso   1.000  C
  C351     1.0000 0.70510  0.16470  0.01237  Biso   1.000  C
  H187     1.0000 0.70700  0.14970  0.00250  Biso   1.000  H
  C352     1.0000 0.66910  0.14780  0.02269  Biso   1.000  C
  H188     1.0000 0.64640  0.12120  0.01980  Biso   1.000  H
  C353     1.0000 0.62660  0.15420  0.04800  Biso   1.000  C
  C354     1.0000 0.74960  0.21050  0.95270  Biso   1.000  C
  C355     1.0000 0.74050  0.21950  0.96960  Biso   1.000  C
  H189     1.0000 0.72990  0.20290  0.94330  Biso   1.000  H
  H190     1.0000 0.71460  0.21800  0.97180  Biso   1.000  H
  O31      1.0000 0.88056  0.47688  0.04387  Biso   1.000  O
  O32      1.0000 0.92443  0.49892  0.07524  Biso   1.000  O
  C356     1.0000 0.84390  0.46730  0.04680  Biso   1.000  C
  O33      1.0000 0.82113  0.44745  0.06011  Biso   1.000  O
  C357     1.0000 0.81930  0.47840  0.03401  Biso   1.000  C
  C358     1.0000 0.78050  0.47430  0.03718  Biso   1.000  C
  C359     1.0000 0.84150  0.49880  0.01870  Biso   1.000  C
  O34      1.0000 0.86593  0.46974  0.09171  Biso   1.000  O
  H191     1.0000 0.76540  0.46040  0.04770  Biso   1.000  H
  C360     1.0000 0.76400  0.49050  0.02500  Biso   1.000  C
  C361     1.0000 0.82500  0.51500  0.00651  Biso   1.000  C
  H192     1.0000 0.86800  0.50160  0.01650  Biso   1.000  H
  C362     1.0000 0.78610  0.51080  0.00968  Biso   1.000  C
  H193     1.0000 0.84010  0.52890  0.99600  Biso   1.000  H
  C363     1.0000 0.76710  0.57440  0.98030  Biso   1.000  C
  H194     1.0000 0.75950  0.58650  0.98970  Biso   1.000  H
  C364     1.0000 0.77610  0.59250  0.96330  Biso   1.000  C
  H195     1.0000 0.77460  0.61690  0.96120  Biso   1.000  H
  C365     1.0000 0.84830  0.63380  0.89130  Biso   1.000  C
  H196     1.0000 0.86720  0.62810  0.89750  Biso   1.000  H
  C366     1.0000 0.85770  0.65010  0.87350  Biso   1.000  C
  C367     1.0000 0.89160  0.65280  0.86470  Biso   1.000  C
  C368     1.0000 0.92180  0.65540  0.85890  Biso   1.000  C
  C369     1.0000 0.96240  0.66360  0.85365  Biso   1.000  C
  C370     1.0000 0.98230  0.68240  0.83770  Biso   1.000  C
  C371     1.0000 0.98050  0.64840  0.86549  Biso   1.000  C
  C372     1.0000 0.02050  0.68610  0.83359  Biso   1.000  C
  H197     1.0000 0.96980  0.69270  0.82960  Biso   1.000  H
  H198     1.0000 0.96680  0.63550  0.87640  Biso   1.000  H
  C373     1.0000 0.01870  0.65210  0.86138  Biso   1.000  C
  C374     1.0000 0.04130  0.71090  0.81752  Biso   1.000  C
  C375     1.0000 0.03880  0.67100  0.84543  Biso   1.000  C
  C376     1.0000 0.03910  0.63440  0.87420  Biso   1.000  C
  C377     1.0000 0.03540  0.74300  0.81147  Biso   1.000  C
  C378     1.0000 0.06840  0.70160  0.80848  Biso   1.000  C
  H199     1.0000 0.06490  0.67350  0.84260  Biso   1.000  H
  C379     1.0000 0.01460  0.60630  0.88741  Biso   1.000  C
  C380     1.0000 0.08080  0.64610  0.87266  Biso   1.000  C
  C381     1.0000 0.05660  0.76580  0.79638  Biso   1.000  C
  H200     1.0000 0.01690  0.74940  0.81770  Biso   1.000  H
  H201     1.0000 0.07240  0.67970  0.81260  Biso   1.000  H
  C382     1.0000 0.08960  0.72440  0.79338  Biso   1.000  C
  C383     1.0000 0.03200  0.58990  0.89908  Biso   1.000  C
  H202     1.0000 0.98610  0.59830  0.88850  Biso   1.000  H
  H203     1.0000 0.09750  0.66530  0.86360  Biso   1.000  H
  C384     1.0000 0.09820  0.62970  0.88433  Biso   1.000  C
  C385     1.0000 0.08370  0.75650  0.78734  Biso   1.000  C
  H204     1.0000 0.05250  0.78770  0.79220  Biso   1.000  H
  H205     1.0000 0.10800  0.71800  0.78720  Biso   1.000  H
  C386     1.0000 0.07370  0.60160  0.89754  Biso   1.000  C
  H206     1.0000 0.01530  0.57070  0.90810  Biso   1.000  H
  H207     1.0000 0.12670  0.63770  0.88330  Biso   1.000  H
  C387     1.0000 0.11030  0.78830  0.77300  Biso   1.000  C
  C388     1.0000 0.09670  0.59200  0.91140  Biso   1.000  C
  O35      1.0000 0.10670  0.81938  0.76848  Biso   1.000  O
  O36      1.0000 0.14134  0.78376  0.76872  Biso   1.000  O
  C389     1.0000 0.03300  0.71560  0.84048  Biso   1.000  C
  C390     1.0000 0.99780  0.71640  0.84627  Biso   1.000  C
  H208     1.0000 0.98630  0.72920  0.83910  Biso   1.000  H
  C391     1.0000 0.97960  0.69850  0.86261  Biso   1.000  C
  C392     1.0000 0.99640  0.67970  0.87316  Biso   1.000  C
  H209     1.0000 0.98390  0.66750  0.88430  Biso   1.000  H
  C393     1.0000 0.03160  0.67890  0.86738  Biso   1.000  C
  C394     1.0000 0.04980  0.69680  0.85104  Biso   1.000  C
  H210     1.0000 0.07390  0.69630  0.84710  Biso   1.000  H
  C395     1.0000 0.94070  0.69570  0.86880  Biso   1.000  C
  C396     1.0000 0.91450  0.69970  0.87630  Biso   1.000  C
  C397     1.0000 0.87750  0.69450  0.88460  Biso   1.000  C
  C398     1.0000 0.87320  0.67890  0.90220  Biso   1.000  C
  H211     1.0000 0.89330  0.67400  0.90780  Biso   1.000  H
  C399     1.0000 0.78710  0.60920  0.98920  Biso   1.000  C
  H212     1.0000 0.77960  0.62040  0.99910  Biso   1.000  H
  C400     1.0000 0.79910  0.63060  0.97300  Biso   1.000  C
  H213     1.0000 0.80110  0.65710  0.97210  Biso   1.000  H
  C401     1.0000 0.80810  0.61440  0.95870  Biso   1.000  C
  C402     1.0000 0.80950  0.57670  0.96050  Biso   1.000  C
  H214     1.0000 0.81860  0.56660  0.95080  Biso   1.000  H
  C403     1.0000 0.79740  0.55530  0.97670  Biso   1.000  C
  H215     1.0000 0.79700  0.52960  0.97800  Biso   1.000  H
  C404     1.0000 0.11970  0.79800  0.77520  Biso   1.000  C
  C405     1.0000 0.09610  0.77630  0.79215  Biso   1.000  C
  C406     1.0000 0.07310  0.79070  0.80128  Biso   1.000  C
  H216     1.0000 0.07180  0.81400  0.79690  Biso   1.000  H
  C407     1.0000 0.05200  0.77090  0.81690  Biso   1.000  C
  H217     1.0000 0.03620  0.78070  0.82310  Biso   1.000  H
  C408     1.0000 0.05390  0.73680  0.82338  Biso   1.000  C
  C409     1.0000 0.07680  0.72240  0.81425  Biso   1.000  C
  H218     1.0000 0.07810  0.69910  0.81870  Biso   1.000  H
  C410     1.0000 0.09800  0.74220  0.79863  Biso   1.000  C
  H219     1.0000 0.11380  0.73250  0.79240  Biso   1.000  H
  C411     1.0000 0.08700  0.62720  0.90202  Biso   1.000  C
  C412     1.0000 0.04540  0.61560  0.90448  Biso   1.000  C
  H220     1.0000 0.02930  0.59560  0.91340  Biso   1.000  H
  C413     1.0000 0.02750  0.63330  0.89394  Biso   1.000  C
  H221     1.0000 0.99910  0.62540  0.89560  Biso   1.000  H
  C414     1.0000 0.05090  0.66250  0.88092  Biso   1.000  C
  C415     1.0000 0.09250  0.67410  0.87846  Biso   1.000  C
  H222     1.0000 0.10850  0.69400  0.86960  Biso   1.000  H
  C416     1.0000 0.11040  0.65640  0.88900  Biso   1.000  C
  H223     1.0000 0.13880  0.66430  0.88730  Biso   1.000  H
  C417     1.0000 0.09830  0.59920  0.91250  Biso   1.000  C
  C418     1.0000 0.83010  0.49650  0.03720  Biso   1.000  C
  C419     1.0000 0.79110  0.49080  0.04140  Biso   1.000  C
  H224     1.0000 0.77610  0.47390  0.05130  Biso   1.000  H
  C420     1.0000 0.77420  0.50990  0.03110  Biso   1.000  C
  C421     1.0000 0.79630  0.53470  0.01657  Biso   1.000  C
  C422     1.0000 0.83530  0.54040  0.01237  Biso   1.000  C
  H225     1.0000 0.85030  0.55730  0.00250  Biso   1.000  H
  C423     1.0000 0.85220  0.52130  0.02269  Biso   1.000  C
  H226     1.0000 0.87880  0.52520  0.01980  Biso   1.000  H
  C424     1.0000 0.84580  0.47240  0.04800  Biso   1.000  C
  C425     1.0000 0.78950  0.53910  0.95270  Biso   1.000  C
  C426     1.0000 0.78050  0.52100  0.96960  Biso   1.000  C
  H227     1.0000 0.79710  0.52700  0.94330  Biso   1.000  H
  H228     1.0000 0.78200  0.49660  0.97180  Biso   1.000  H
  O37      1.0000 0.59632  0.47688  0.45613  Biso   1.000  O
  O38      1.0000 0.57449  0.49892  0.42476  Biso   1.000  O
  C427     1.0000 0.62340  0.46730  0.45320  Biso   1.000  C
  O39      1.0000 0.62632  0.44745  0.43989  Biso   1.000  O
  C428     1.0000 0.65910  0.47840  0.46599  Biso   1.000  C
  C429     1.0000 0.69380  0.47430  0.46282  Biso   1.000  C
  C430     1.0000 0.65730  0.49880  0.48130  Biso   1.000  C
  O40      1.0000 0.60381  0.46974  0.40829  Biso   1.000  O
  H229     1.0000 0.69500  0.46040  0.45230  Biso   1.000  H
  C431     1.0000 0.72650  0.49050  0.47500  Biso   1.000  C
  C432     1.0000 0.69000  0.51500  0.49349  Biso   1.000  C
  H230     1.0000 0.63360  0.50160  0.48350  Biso   1.000  H
  C433     1.0000 0.72470  0.51080  0.49032  Biso   1.000  C
  H231     1.0000 0.68880  0.52890  0.50400  Biso   1.000  H
  C434     1.0000 0.80730  0.57440  0.51970  Biso   1.000  C
  H232     1.0000 0.82700  0.58650  0.51030  Biso   1.000  H
  C435     1.0000 0.81640  0.59250  0.53670  Biso   1.000  C
  H233     1.0000 0.84230  0.61690  0.53880  Biso   1.000  H
  C436     1.0000 0.78550  0.63380  0.60870  Biso   1.000  C
  H234     1.0000 0.76090  0.62810  0.60250  Biso   1.000  H
  C437     1.0000 0.79240  0.65010  0.62650  Biso   1.000  C
  C438     1.0000 0.76120  0.65280  0.63530  Biso   1.000  C
  C439     1.0000 0.73360  0.65540  0.64110  Biso   1.000  C
  C440     1.0000 0.70120  0.66360  0.64635  Biso   1.000  C
  C441     1.0000 0.70010  0.68240  0.66230  Biso   1.000  C
  C442     1.0000 0.66790  0.64840  0.63451  Biso   1.000  C
  C443     1.0000 0.66560  0.68610  0.66641  Biso   1.000  C
  H235     1.0000 0.72290  0.69270  0.67040  Biso   1.000  H
  H236     1.0000 0.66870  0.63550  0.62360  Biso   1.000  H
  C444     1.0000 0.63340  0.65210  0.63862  Biso   1.000  C
  C445     1.0000 0.66960  0.71090  0.68248  Biso   1.000  C
  C446     1.0000 0.63220  0.67100  0.65457  Biso   1.000  C
  C447     1.0000 0.59530  0.63440  0.62580  Biso   1.000  C
  C448     1.0000 0.70760  0.74300  0.68853  Biso   1.000  C
  C449     1.0000 0.63320  0.70160  0.69152  Biso   1.000  C
  H237     1.0000 0.60860  0.67350  0.65740  Biso   1.000  H
  C450     1.0000 0.59170  0.60630  0.61259  Biso   1.000  C
  C451     1.0000 0.56530  0.64610  0.62734  Biso   1.000  C
  C452     1.0000 0.70920  0.76580  0.70362  Biso   1.000  C
  H238     1.0000 0.73250  0.74940  0.68230  Biso   1.000  H
  H239     1.0000 0.60730  0.67970  0.68740  Biso   1.000  H
  C453     1.0000 0.63480  0.72440  0.70662  Biso   1.000  C
  C454     1.0000 0.55790  0.58990  0.60092  Biso   1.000  C
  H240     1.0000 0.61220  0.59830  0.61150  Biso   1.000  H
  H241     1.0000 0.56780  0.66530  0.63640  Biso   1.000  H
  C455     1.0000 0.53150  0.62970  0.61567  Biso   1.000  C
  C456     1.0000 0.67280  0.75650  0.71266  Biso   1.000  C
  H242     1.0000 0.73520  0.78770  0.70780  Biso   1.000  H
  H243     1.0000 0.61000  0.71800  0.71280  Biso   1.000  H
  C457     1.0000 0.52790  0.60160  0.60246  Biso   1.000  C
  H244     1.0000 0.55540  0.57070  0.59190  Biso   1.000  H
  H245     1.0000 0.51100  0.63770  0.61670  Biso   1.000  H
  C458     1.0000 0.67800  0.78830  0.72700  Biso   1.000  C
  C459     1.0000 0.49530  0.59200  0.58860  Biso   1.000  C
  O41      1.0000 0.71268  0.81938  0.73152  Biso   1.000  O
  O42      1.0000 0.64242  0.78376  0.73128  Biso   1.000  O
  C460     1.0000 0.68260  0.71560  0.65952  Biso   1.000  C
  C461     1.0000 0.71860  0.71640  0.65373  Biso   1.000  C
  H246     1.0000 0.74290  0.72920  0.66090  Biso   1.000  H
  C462     1.0000 0.71890  0.69850  0.63739  Biso   1.000  C
  C463     1.0000 0.68330  0.67970  0.62684  Biso   1.000  C
  H247     1.0000 0.68360  0.66750  0.61570  Biso   1.000  H
  C464     1.0000 0.64730  0.67890  0.63262  Biso   1.000  C
  C465     1.0000 0.64700  0.69680  0.64896  Biso   1.000  C
  H248     1.0000 0.62240  0.69630  0.65290  Biso   1.000  H
  C466     1.0000 0.75500  0.69570  0.63120  Biso   1.000  C
  C467     1.0000 0.78520  0.69970  0.62370  Biso   1.000  C
  C468     1.0000 0.81700  0.69450  0.61540  Biso   1.000  C
  C469     1.0000 0.80570  0.67890  0.59780  Biso   1.000  C
  H249     1.0000 0.78070  0.67400  0.59220  Biso   1.000  H
  C470     1.0000 0.82210  0.60920  0.51080  Biso   1.000  C
  H250     1.0000 0.84080  0.62040  0.50090  Biso   1.000  H
  C471     1.0000 0.83150  0.63060  0.52700  Biso   1.000  C
  H251     1.0000 0.85600  0.65710  0.52790  Biso   1.000  H
  C472     1.0000 0.80630  0.61440  0.54130  Biso   1.000  C
  C473     1.0000 0.76720  0.57670  0.53950  Biso   1.000  C
  H252     1.0000 0.74800  0.56660  0.54920  Biso   1.000  H
  C474     1.0000 0.75790  0.55530  0.52330  Biso   1.000  C
  H253     1.0000 0.73260  0.52960  0.52200  Biso   1.000  H
  C475     1.0000 0.67830  0.79800  0.72480  Biso   1.000  C
  C476     1.0000 0.68020  0.77630  0.70785  Biso   1.000  C
  C477     1.0000 0.71760  0.79070  0.69872  Biso   1.000  C
  H254     1.0000 0.74220  0.81400  0.70310  Biso   1.000  H
  C478     1.0000 0.71890  0.77090  0.68310  Biso   1.000  C
  H255     1.0000 0.74450  0.78070  0.67690  Biso   1.000  H
  C479     1.0000 0.68290  0.73680  0.67662  Biso   1.000  C
  C480     1.0000 0.64560  0.72240  0.68575  Biso   1.000  C
  H256     1.0000 0.62100  0.69910  0.68130  Biso   1.000  H
  C481     1.0000 0.64420  0.74220  0.70137  Biso   1.000  C
  H257     1.0000 0.61870  0.73250  0.70760  Biso   1.000  H
  C482     1.0000 0.54020  0.62720  0.59798  Biso   1.000  C
  C483     1.0000 0.57020  0.61560  0.59552  Biso   1.000  C
  H258     1.0000 0.56630  0.59560  0.58660  Biso   1.000  H
  C484     1.0000 0.60580  0.63330  0.60606  Biso   1.000  C
  H259     1.0000 0.62630  0.62540  0.60440  Biso   1.000  H
  C485     1.0000 0.61160  0.66250  0.61908  Biso   1.000  C
  C486     1.0000 0.58160  0.67410  0.62154  Biso   1.000  C
  H260     1.0000 0.58550  0.69400  0.63040  Biso   1.000  H
  C487     1.0000 0.54600  0.65640  0.61100  Biso   1.000  C
  H261     1.0000 0.52550  0.66430  0.61270  Biso   1.000  H
  C488     1.0000 0.50090  0.59920  0.58750  Biso   1.000  C
  C489     1.0000 0.66640  0.49650  0.46280  Biso   1.000  C
  C490     1.0000 0.69970  0.49080  0.45860  Biso   1.000  C
  H262     1.0000 0.69780  0.47390  0.44870  Biso   1.000  H
  C491     1.0000 0.73570  0.50990  0.46890  Biso   1.000  C
  C492     1.0000 0.73840  0.53470  0.48343  Biso   1.000  C
  C493     1.0000 0.70510  0.54040  0.48763  Biso   1.000  C
  H263     1.0000 0.70700  0.55730  0.49750  Biso   1.000  H
  C494     1.0000 0.66910  0.52130  0.47731  Biso   1.000  C
  H264     1.0000 0.64640  0.52520  0.48020  Biso   1.000  H
  C495     1.0000 0.62660  0.47240  0.45200  Biso   1.000  C
  C496     1.0000 0.74960  0.53910  0.54730  Biso   1.000  C
  C497     1.0000 0.74050  0.52100  0.53040  Biso   1.000  C
  H265     1.0000 0.72990  0.52700  0.55670  Biso   1.000  H
  H266     1.0000 0.71460  0.49660  0.52820  Biso   1.000  H
  O43      1.0000 0.88056  0.40368  0.45613  Biso   1.000  O
  O44      1.0000 0.92443  0.42551  0.42476  Biso   1.000  O
  C498     1.0000 0.84390  0.37660  0.45320  Biso   1.000  C
  O45      1.0000 0.82113  0.37368  0.43989  Biso   1.000  O
  C499     1.0000 0.81930  0.34090  0.46599  Biso   1.000  C
  C500     1.0000 0.78050  0.30620  0.46282  Biso   1.000  C
  C501     1.0000 0.84150  0.34270  0.48130  Biso   1.000  C
  O46      1.0000 0.86593  0.39619  0.40829  Biso   1.000  O
  H267     1.0000 0.76540  0.30500  0.45230  Biso   1.000  H
  C502     1.0000 0.76400  0.27350  0.47500  Biso   1.000  C
  C503     1.0000 0.82500  0.31000  0.49349  Biso   1.000  C
  H268     1.0000 0.86800  0.36640  0.48350  Biso   1.000  H
  C504     1.0000 0.78610  0.27530  0.49032  Biso   1.000  C
  H269     1.0000 0.84010  0.31120  0.50400  Biso   1.000  H
  C505     1.0000 0.76710  0.19270  0.51970  Biso   1.000  C
  H270     1.0000 0.75950  0.17300  0.51030  Biso   1.000  H
  C506     1.0000 0.77610  0.18360  0.53670  Biso   1.000  C
  H271     1.0000 0.77460  0.15770  0.53880  Biso   1.000  H
  C507     1.0000 0.84830  0.21450  0.60870  Biso   1.000  C
  H272     1.0000 0.86720  0.23910  0.60250  Biso   1.000  H
  C508     1.0000 0.85770  0.20760  0.62650  Biso   1.000  C
  C509     1.0000 0.89160  0.23880  0.63530  Biso   1.000  C
  C510     1.0000 0.92180  0.26640  0.64110  Biso   1.000  C
  C511     1.0000 0.96240  0.29880  0.64635  Biso   1.000  C
  C512     1.0000 0.98230  0.29990  0.66230  Biso   1.000  C
  C513     1.0000 0.98050  0.33210  0.63451  Biso   1.000  C
  C514     1.0000 0.02050  0.33440  0.66641  Biso   1.000  C
  H273     1.0000 0.96980  0.27710  0.67040  Biso   1.000  H
  H274     1.0000 0.96680  0.33130  0.62360  Biso   1.000  H
  C515     1.0000 0.01870  0.36660  0.63862  Biso   1.000  C
  C516     1.0000 0.04130  0.33040  0.68248  Biso   1.000  C
  C517     1.0000 0.03880  0.36780  0.65457  Biso   1.000  C
  C518     1.0000 0.03910  0.40470  0.62580  Biso   1.000  C
  C519     1.0000 0.03540  0.29240  0.68853  Biso   1.000  C
  C520     1.0000 0.06840  0.36680  0.69152  Biso   1.000  C
  H275     1.0000 0.06490  0.39140  0.65740  Biso   1.000  H
  C521     1.0000 0.01460  0.40830  0.61259  Biso   1.000  C
  C522     1.0000 0.08080  0.43470  0.62734  Biso   1.000  C
  C523     1.0000 0.05660  0.29080  0.70362  Biso   1.000  C
  H276     1.0000 0.01690  0.26750  0.68230  Biso   1.000  H
  H277     1.0000 0.07240  0.39270  0.68740  Biso   1.000  H
  C524     1.0000 0.08960  0.36520  0.70662  Biso   1.000  C
  C525     1.0000 0.03200  0.44210  0.60092  Biso   1.000  C
  H278     1.0000 0.98610  0.38780  0.61150  Biso   1.000  H
  H279     1.0000 0.09750  0.43220  0.63640  Biso   1.000  H
  C526     1.0000 0.09820  0.46850  0.61567  Biso   1.000  C
  C527     1.0000 0.08370  0.32720  0.71266  Biso   1.000  C
  H280     1.0000 0.05250  0.26480  0.70780  Biso   1.000  H
  H281     1.0000 0.10800  0.39000  0.71280  Biso   1.000  H
  C528     1.0000 0.07370  0.47210  0.60246  Biso   1.000  C
  H282     1.0000 0.01530  0.44460  0.59190  Biso   1.000  H
  H283     1.0000 0.12670  0.48900  0.61670  Biso   1.000  H
  C529     1.0000 0.11030  0.32200  0.72700  Biso   1.000  C
  C530     1.0000 0.09670  0.50470  0.58860  Biso   1.000  C
  O47      1.0000 0.10670  0.28732  0.73152  Biso   1.000  O
  O48      1.0000 0.14134  0.35758  0.73128  Biso   1.000  O
  C531     1.0000 0.03300  0.31740  0.65952  Biso   1.000  C
  C532     1.0000 0.99780  0.28140  0.65373  Biso   1.000  C
  H284     1.0000 0.98630  0.25710  0.66090  Biso   1.000  H
  C533     1.0000 0.97960  0.28110  0.63739  Biso   1.000  C
  C534     1.0000 0.99640  0.31670  0.62684  Biso   1.000  C
  H285     1.0000 0.98390  0.31640  0.61570  Biso   1.000  H
  C535     1.0000 0.03160  0.35270  0.63262  Biso   1.000  C
  C536     1.0000 0.04980  0.35300  0.64896  Biso   1.000  C
  H286     1.0000 0.07390  0.37760  0.65290  Biso   1.000  H
  C537     1.0000 0.94070  0.24500  0.63120  Biso   1.000  C
  C538     1.0000 0.91450  0.21480  0.62370  Biso   1.000  C
  C539     1.0000 0.87750  0.18300  0.61540  Biso   1.000  C
  C540     1.0000 0.87320  0.19430  0.59780  Biso   1.000  C
  H287     1.0000 0.89330  0.21930  0.59220  Biso   1.000  H
  C541     1.0000 0.78710  0.17790  0.51080  Biso   1.000  C
  H288     1.0000 0.77960  0.15920  0.50090  Biso   1.000  H
  C542     1.0000 0.79910  0.16850  0.52700  Biso   1.000  C
  H289     1.0000 0.80110  0.14400  0.52790  Biso   1.000  H
  C543     1.0000 0.80810  0.19370  0.54130  Biso   1.000  C
  C544     1.0000 0.80950  0.23280  0.53950  Biso   1.000  C
  H290     1.0000 0.81860  0.25200  0.54920  Biso   1.000  H
  C545     1.0000 0.79740  0.24210  0.52330  Biso   1.000  C
  H291     1.0000 0.79700  0.26740  0.52200  Biso   1.000  H
  C546     1.0000 0.11970  0.32170  0.72480  Biso   1.000  C
  C547     1.0000 0.09610  0.31980  0.70785  Biso   1.000  C
  C548     1.0000 0.07310  0.28240  0.69872  Biso   1.000  C
  H292     1.0000 0.07180  0.25780  0.70310  Biso   1.000  H
  C549     1.0000 0.05200  0.28110  0.68310  Biso   1.000  C
  H293     1.0000 0.03620  0.25550  0.67690  Biso   1.000  H
  C550     1.0000 0.05390  0.31710  0.67662  Biso   1.000  C
  C551     1.0000 0.07680  0.35440  0.68575  Biso   1.000  C
  H294     1.0000 0.07810  0.37900  0.68130  Biso   1.000  H
  C552     1.0000 0.09800  0.35580  0.70137  Biso   1.000  C
  H295     1.0000 0.11380  0.38130  0.70760  Biso   1.000  H
  C553     1.0000 0.08700  0.45980  0.59798  Biso   1.000  C
  C554     1.0000 0.04540  0.42980  0.59552  Biso   1.000  C
  H296     1.0000 0.02930  0.43370  0.58660  Biso   1.000  H
  C555     1.0000 0.02750  0.39420  0.60606  Biso   1.000  C
  H297     1.0000 0.99910  0.37370  0.60440  Biso   1.000  H
  C556     1.0000 0.05090  0.38840  0.61908  Biso   1.000  C
  C557     1.0000 0.09250  0.41840  0.62154  Biso   1.000  C
  H298     1.0000 0.10850  0.41450  0.63040  Biso   1.000  H
  C558     1.0000 0.11040  0.45400  0.61100  Biso   1.000  C
  H299     1.0000 0.13880  0.47450  0.61270  Biso   1.000  H
  C559     1.0000 0.09830  0.49910  0.58750  Biso   1.000  C
  C560     1.0000 0.83010  0.33360  0.46280  Biso   1.000  C
  C561     1.0000 0.79110  0.30030  0.45860  Biso   1.000  C
  H300     1.0000 0.77610  0.30220  0.44870  Biso   1.000  H
  C562     1.0000 0.77420  0.26430  0.46890  Biso   1.000  C
  C563     1.0000 0.79630  0.26160  0.48343  Biso   1.000  C
  C564     1.0000 0.83530  0.29490  0.48763  Biso   1.000  C
  H301     1.0000 0.85030  0.29300  0.49750  Biso   1.000  H
  C565     1.0000 0.85220  0.33090  0.47731  Biso   1.000  C
  H302     1.0000 0.87880  0.35360  0.48020  Biso   1.000  H
  C566     1.0000 0.84580  0.37340  0.45200  Biso   1.000  C
  C567     1.0000 0.78950  0.25040  0.54730  Biso   1.000  C
  C568     1.0000 0.78050  0.25950  0.53040  Biso   1.000  C
  H303     1.0000 0.79710  0.27010  0.55670  Biso   1.000  H
  H304     1.0000 0.78200  0.28540  0.52820  Biso   1.000  H
  O49      1.0000 0.52312  0.11944  0.45613  Biso   1.000  O
  O50      1.0000 0.50108  0.07557  0.42476  Biso   1.000  O
  C569     1.0000 0.53270  0.15610  0.45320  Biso   1.000  C
  O51      1.0000 0.55255  0.17887  0.43989  Biso   1.000  O
  C570     1.0000 0.52160  0.18070  0.46599  Biso   1.000  C
  C571     1.0000 0.52570  0.21950  0.46282  Biso   1.000  C
  C572     1.0000 0.50120  0.15850  0.48130  Biso   1.000  C
  O52      1.0000 0.53026  0.13407  0.40829  Biso   1.000  O
  H305     1.0000 0.53960  0.23460  0.45230  Biso   1.000  H
  C573     1.0000 0.50950  0.23600  0.47500  Biso   1.000  C
  C574     1.0000 0.48500  0.17500  0.49349  Biso   1.000  C
  H306     1.0000 0.49840  0.13200  0.48350  Biso   1.000  H
  C575     1.0000 0.48920  0.21390  0.49032  Biso   1.000  C
  H307     1.0000 0.47110  0.15990  0.50400  Biso   1.000  H
  C576     1.0000 0.42560  0.23290  0.51970  Biso   1.000  C
  H308     1.0000 0.41350  0.24050  0.51030  Biso   1.000  H
  C577     1.0000 0.40750  0.22390  0.53670  Biso   1.000  C
  H309     1.0000 0.38310  0.22540  0.53880  Biso   1.000  H
  C578     1.0000 0.36620  0.15170  0.60870  Biso   1.000  C
  H310     1.0000 0.37190  0.13280  0.60250  Biso   1.000  H
  C579     1.0000 0.34990  0.14230  0.62650  Biso   1.000  C
  C580     1.0000 0.34720  0.10840  0.63530  Biso   1.000  C
  C581     1.0000 0.34460  0.07820  0.64110  Biso   1.000  C
  C582     1.0000 0.33640  0.03760  0.64635  Biso   1.000  C
  C583     1.0000 0.31760  0.01770  0.66230  Biso   1.000  C
  C584     1.0000 0.35160  0.01950  0.63451  Biso   1.000  C
  C585     1.0000 0.31390  0.97950  0.66641  Biso   1.000  C
  H311     1.0000 0.30730  0.03020  0.67040  Biso   1.000  H
  H312     1.0000 0.36450  0.03320  0.62360  Biso   1.000  H
  C586     1.0000 0.34790  0.98130  0.63862  Biso   1.000  C
  C587     1.0000 0.28910  0.95870  0.68248  Biso   1.000  C
  C588     1.0000 0.32900  0.96120  0.65457  Biso   1.000  C
  C589     1.0000 0.36560  0.96090  0.62580  Biso   1.000  C
  C590     1.0000 0.25700  0.96460  0.68853  Biso   1.000  C
  C591     1.0000 0.29840  0.93160  0.69152  Biso   1.000  C
  H313     1.0000 0.32650  0.93510  0.65740  Biso   1.000  H
  C592     1.0000 0.39370  0.98540  0.61259  Biso   1.000  C
  C593     1.0000 0.35390  0.91920  0.62734  Biso   1.000  C
  C594     1.0000 0.23420  0.94340  0.70362  Biso   1.000  C
  H314     1.0000 0.25060  0.98310  0.68230  Biso   1.000  H
  H315     1.0000 0.32030  0.92760  0.68740  Biso   1.000  H
  C595     1.0000 0.27560  0.91040  0.70662  Biso   1.000  C
  C596     1.0000 0.41010  0.96800  0.60092  Biso   1.000  C
  H316     1.0000 0.40170  0.01390  0.61150  Biso   1.000  H
  H317     1.0000 0.33470  0.90250  0.63640  Biso   1.000  H
  C597     1.0000 0.37030  0.90180  0.61567  Biso   1.000  C
  C598     1.0000 0.24350  0.91630  0.71266  Biso   1.000  C
  H318     1.0000 0.21230  0.94750  0.70780  Biso   1.000  H
  H319     1.0000 0.28200  0.89200  0.71280  Biso   1.000  H
  C599     1.0000 0.39840  0.92630  0.60246  Biso   1.000  C
  H320     1.0000 0.42930  0.98470  0.59190  Biso   1.000  H
  H321     1.0000 0.36230  0.87330  0.61670  Biso   1.000  H
  C600     1.0000 0.21170  0.88970  0.72700  Biso   1.000  C
  C601     1.0000 0.40800  0.90330  0.58860  Biso   1.000  C
  O53      1.0000 0.18062  0.89330  0.73152  Biso   1.000  O
  O54      1.0000 0.21624  0.85866  0.73128  Biso   1.000  O
  C602     1.0000 0.28440  0.96700  0.65952  Biso   1.000  C
  C603     1.0000 0.28360  0.00220  0.65373  Biso   1.000  C
  H322     1.0000 0.27080  0.01370  0.66090  Biso   1.000  H
  C604     1.0000 0.30150  0.02040  0.63739  Biso   1.000  C
  C605     1.0000 0.32030  0.00360  0.62684  Biso   1.000  C
  H323     1.0000 0.33250  0.01610  0.61570  Biso   1.000  H
  C606     1.0000 0.32110  0.96840  0.63262  Biso   1.000  C
  C607     1.0000 0.30320  0.95020  0.64896  Biso   1.000  C
  H324     1.0000 0.30370  0.92610  0.65290  Biso   1.000  H
  C608     1.0000 0.30430  0.05930  0.63120  Biso   1.000  C
  C609     1.0000 0.30030  0.08550  0.62370  Biso   1.000  C
  C610     1.0000 0.30550  0.12250  0.61540  Biso   1.000  C
  C611     1.0000 0.32110  0.12680  0.59780  Biso   1.000  C
  H325     1.0000 0.32600  0.10670  0.59220  Biso   1.000  H
  C612     1.0000 0.39080  0.21290  0.51080  Biso   1.000  C
  H326     1.0000 0.37960  0.22040  0.50090  Biso   1.000  H
  C613     1.0000 0.36940  0.20090  0.52700  Biso   1.000  C
  H327     1.0000 0.34290  0.19890  0.52790  Biso   1.000  H
  C614     1.0000 0.38560  0.19190  0.54130  Biso   1.000  C
  C615     1.0000 0.42330  0.19050  0.53950  Biso   1.000  C
  H328     1.0000 0.43340  0.18140  0.54920  Biso   1.000  H
  C616     1.0000 0.44470  0.20260  0.52330  Biso   1.000  C
  H329     1.0000 0.47040  0.20300  0.52200  Biso   1.000  H
  C617     1.0000 0.20200  0.88030  0.72480  Biso   1.000  C
  C618     1.0000 0.22370  0.90390  0.70785  Biso   1.000  C
  C619     1.0000 0.20930  0.92690  0.69872  Biso   1.000  C
  H330     1.0000 0.18600  0.92820  0.70310  Biso   1.000  H
  C620     1.0000 0.22910  0.94800  0.68310  Biso   1.000  C
  H331     1.0000 0.21930  0.96380  0.67690  Biso   1.000  H
  C621     1.0000 0.26320  0.94610  0.67662  Biso   1.000  C
  C622     1.0000 0.27760  0.92320  0.68575  Biso   1.000  C
  H332     1.0000 0.30090  0.92190  0.68130  Biso   1.000  H
  C623     1.0000 0.25780  0.90200  0.70137  Biso   1.000  C
  H333     1.0000 0.26750  0.88620  0.70760  Biso   1.000  H
  C624     1.0000 0.37280  0.91300  0.59798  Biso   1.000  C
  C625     1.0000 0.38440  0.95460  0.59552  Biso   1.000  C
  H334     1.0000 0.40440  0.97070  0.58660  Biso   1.000  H
  C626     1.0000 0.36670  0.97250  0.60606  Biso   1.000  C
  H335     1.0000 0.37460  0.00090  0.60440  Biso   1.000  H
  C627     1.0000 0.33750  0.94910  0.61908  Biso   1.000  C
  C628     1.0000 0.32590  0.90750  0.62154  Biso   1.000  C
  H336     1.0000 0.30600  0.89150  0.63040  Biso   1.000  H
  C629     1.0000 0.34360  0.88960  0.61100  Biso   1.000  C
  H337     1.0000 0.33570  0.86120  0.61270  Biso   1.000  H
  C630     1.0000 0.40080  0.90170  0.58750  Biso   1.000  C
  C631     1.0000 0.50350  0.16990  0.46280  Biso   1.000  C
  C632     1.0000 0.50920  0.20890  0.45860  Biso   1.000  C
  H338     1.0000 0.52610  0.22390  0.44870  Biso   1.000  H
  C633     1.0000 0.49010  0.22580  0.46890  Biso   1.000  C
  C634     1.0000 0.46530  0.20370  0.48343  Biso   1.000  C
  C635     1.0000 0.45960  0.16470  0.48763  Biso   1.000  C
  H339     1.0000 0.44270  0.14970  0.49750  Biso   1.000  H
  C636     1.0000 0.47870  0.14780  0.47731  Biso   1.000  C
  H340     1.0000 0.47480  0.12120  0.48020  Biso   1.000  H
  C637     1.0000 0.52760  0.15420  0.45200  Biso   1.000  C
  C638     1.0000 0.46090  0.21050  0.54730  Biso   1.000  C
  C639     1.0000 0.47900  0.21950  0.53040  Biso   1.000  C
  H341     1.0000 0.47300  0.20290  0.55670  Biso   1.000  H
  H342     1.0000 0.50340  0.21800  0.52820  Biso   1.000  H
  O55      1.0000 0.40368  0.52312  0.95613  Biso   1.000  O
  O56      1.0000 0.42551  0.50108  0.92476  Biso   1.000  O
  C640     1.0000 0.37660  0.53270  0.95320  Biso   1.000  C
  O57      1.0000 0.37368  0.55255  0.93989  Biso   1.000  O
  C641     1.0000 0.34090  0.52160  0.96599  Biso   1.000  C
  C642     1.0000 0.30620  0.52570  0.96282  Biso   1.000  C
  C643     1.0000 0.34270  0.50120  0.98130  Biso   1.000  C
  O58      1.0000 0.39619  0.53026  0.90829  Biso   1.000  O
  H343     1.0000 0.30500  0.53960  0.95230  Biso   1.000  H
  C644     1.0000 0.27350  0.50950  0.97500  Biso   1.000  C
  C645     1.0000 0.31000  0.48500  0.99349  Biso   1.000  C
  H344     1.0000 0.36640  0.49840  0.98350  Biso   1.000  H
  C646     1.0000 0.27530  0.48920  0.99032  Biso   1.000  C
  H345     1.0000 0.31120  0.47110  0.00400  Biso   1.000  H
  C647     1.0000 0.19270  0.42560  0.01970  Biso   1.000  C
  H346     1.0000 0.17300  0.41350  0.01030  Biso   1.000  H
  C648     1.0000 0.18360  0.40750  0.03670  Biso   1.000  C
  H347     1.0000 0.15770  0.38310  0.03880  Biso   1.000  H
  C649     1.0000 0.21450  0.36620  0.10870  Biso   1.000  C
  H348     1.0000 0.23910  0.37190  0.10250  Biso   1.000  H
  C650     1.0000 0.20760  0.34990  0.12650  Biso   1.000  C
  C651     1.0000 0.23880  0.34720  0.13530  Biso   1.000  C
  C652     1.0000 0.26640  0.34460  0.14110  Biso   1.000  C
  C653     1.0000 0.29880  0.33640  0.14635  Biso   1.000  C
  C654     1.0000 0.29990  0.31760  0.16230  Biso   1.000  C
  C655     1.0000 0.33210  0.35160  0.13451  Biso   1.000  C
  C656     1.0000 0.33440  0.31390  0.16641  Biso   1.000  C
  H349     1.0000 0.27710  0.30730  0.17040  Biso   1.000  H
  H350     1.0000 0.33130  0.36450  0.12360  Biso   1.000  H
  C657     1.0000 0.36660  0.34790  0.13862  Biso   1.000  C
  C658     1.0000 0.33040  0.28910  0.18248  Biso   1.000  C
  C659     1.0000 0.36780  0.32900  0.15457  Biso   1.000  C
  C660     1.0000 0.40470  0.36560  0.12580  Biso   1.000  C
  C661     1.0000 0.29240  0.25700  0.18853  Biso   1.000  C
  C662     1.0000 0.36680  0.29840  0.19152  Biso   1.000  C
  H351     1.0000 0.39140  0.32650  0.15740  Biso   1.000  H
  C663     1.0000 0.40830  0.39370  0.11259  Biso   1.000  C
  C664     1.0000 0.43470  0.35390  0.12734  Biso   1.000  C
  C665     1.0000 0.29080  0.23420  0.20362  Biso   1.000  C
  H352     1.0000 0.26750  0.25060  0.18230  Biso   1.000  H
  H353     1.0000 0.39270  0.32030  0.18740  Biso   1.000  H
  C666     1.0000 0.36520  0.27560  0.20662  Biso   1.000  C
  C667     1.0000 0.44210  0.41010  0.10092  Biso   1.000  C
  H354     1.0000 0.38780  0.40170  0.11150  Biso   1.000  H
  H355     1.0000 0.43220  0.33470  0.13640  Biso   1.000  H
  C668     1.0000 0.46850  0.37030  0.11567  Biso   1.000  C
  C669     1.0000 0.32720  0.24350  0.21266  Biso   1.000  C
  H356     1.0000 0.26480  0.21230  0.20780  Biso   1.000  H
  H357     1.0000 0.39000  0.28200  0.21280  Biso   1.000  H
  C670     1.0000 0.47210  0.39840  0.10246  Biso   1.000  C
  H358     1.0000 0.44460  0.42930  0.09190  Biso   1.000  H
  H359     1.0000 0.48900  0.36230  0.11670  Biso   1.000  H
  C671     1.0000 0.32200  0.21170  0.22700  Biso   1.000  C
  C672     1.0000 0.50470  0.40800  0.08860  Biso   1.000  C
  O59      1.0000 0.28732  0.18062  0.23152  Biso   1.000  O
  O60      1.0000 0.35758  0.21624  0.23128  Biso   1.000  O
  C673     1.0000 0.31740  0.28440  0.15952  Biso   1.000  C
  C674     1.0000 0.28140  0.28360  0.15373  Biso   1.000  C
  H360     1.0000 0.25710  0.27080  0.16090  Biso   1.000  H
  C675     1.0000 0.28110  0.30150  0.13739  Biso   1.000  C
  C676     1.0000 0.31670  0.32030  0.12684  Biso   1.000  C
  H361     1.0000 0.31640  0.33250  0.11570  Biso   1.000  H
  C677     1.0000 0.35270  0.32110  0.13262  Biso   1.000  C
  C678     1.0000 0.35300  0.30320  0.14896  Biso   1.000  C
  H362     1.0000 0.37760  0.30370  0.15290  Biso   1.000  H
  C679     1.0000 0.24500  0.30430  0.13120  Biso   1.000  C
  C680     1.0000 0.21480  0.30030  0.12370  Biso   1.000  C
  C681     1.0000 0.18300  0.30550  0.11540  Biso   1.000  C
  C682     1.0000 0.19430  0.32110  0.09780  Biso   1.000  C
  H363     1.0000 0.21930  0.32600  0.09220  Biso   1.000  H
  C683     1.0000 0.17790  0.39080  0.01080  Biso   1.000  C
  H364     1.0000 0.15920  0.37960  0.00090  Biso   1.000  H
  C684     1.0000 0.16850  0.36940  0.02700  Biso   1.000  C
  H365     1.0000 0.14400  0.34290  0.02790  Biso   1.000  H
  C685     1.0000 0.19370  0.38560  0.04130  Biso   1.000  C
  C686     1.0000 0.23280  0.42330  0.03950  Biso   1.000  C
  H366     1.0000 0.25200  0.43340  0.04920  Biso   1.000  H
  C687     1.0000 0.24210  0.44470  0.02330  Biso   1.000  C
  H367     1.0000 0.26740  0.47040  0.02200  Biso   1.000  H
  C688     1.0000 0.32170  0.20200  0.22480  Biso   1.000  C
  C689     1.0000 0.31980  0.22370  0.20785  Biso   1.000  C
  C690     1.0000 0.28240  0.20930  0.19872  Biso   1.000  C
  H368     1.0000 0.25780  0.18600  0.20310  Biso   1.000  H
  C691     1.0000 0.28110  0.22910  0.18310  Biso   1.000  C
  H369     1.0000 0.25550  0.21930  0.17690  Biso   1.000  H
  C692     1.0000 0.31710  0.26320  0.17662  Biso   1.000  C
  C693     1.0000 0.35440  0.27760  0.18575  Biso   1.000  C
  H370     1.0000 0.37900  0.30090  0.18130  Biso   1.000  H
  C694     1.0000 0.35580  0.25780  0.20137  Biso   1.000  C
  H371     1.0000 0.38130  0.26750  0.20760  Biso   1.000  H
  C695     1.0000 0.45980  0.37280  0.09798  Biso   1.000  C
  C696     1.0000 0.42980  0.38440  0.09552  Biso   1.000  C
  H372     1.0000 0.43370  0.40440  0.08660  Biso   1.000  H
  C697     1.0000 0.39420  0.36670  0.10606  Biso   1.000  C
  H373     1.0000 0.37370  0.37460  0.10440  Biso   1.000  H
  C698     1.0000 0.38840  0.33750  0.11908  Biso   1.000  C
  C699     1.0000 0.41840  0.32590  0.12154  Biso   1.000  C
  H374     1.0000 0.41450  0.30600  0.13040  Biso   1.000  H
  C700     1.0000 0.45400  0.34360  0.11100  Biso   1.000  C
  H375     1.0000 0.47450  0.33570  0.11270  Biso   1.000  H
  C701     1.0000 0.49910  0.40080  0.08750  Biso   1.000  C
  C702     1.0000 0.33360  0.50350  0.96280  Biso   1.000  C
  C703     1.0000 0.30030  0.50920  0.95860  Biso   1.000  C
  H376     1.0000 0.30220  0.52610  0.94870  Biso   1.000  H
  C704     1.0000 0.26430  0.49010  0.96890  Biso   1.000  C
  C705     1.0000 0.26160  0.46530  0.98343  Biso   1.000  C
  C706     1.0000 0.29490  0.45960  0.98763  Biso   1.000  C
  H377     1.0000 0.29300  0.44270  0.99750  Biso   1.000  H
  C707     1.0000 0.33090  0.47870  0.97731  Biso   1.000  C
  H378     1.0000 0.35360  0.47480  0.98020  Biso   1.000  H
  C708     1.0000 0.37340  0.52760  0.95200  Biso   1.000  C
  C709     1.0000 0.25040  0.46090  0.04730  Biso   1.000  C
  C710     1.0000 0.25950  0.47900  0.03040  Biso   1.000  C
  H379     1.0000 0.27010  0.47300  0.05670  Biso   1.000  H
  H380     1.0000 0.28540  0.50340  0.02820  Biso   1.000  H
  O61      1.0000 0.11944  0.59632  0.95613  Biso   1.000  O
  O62      1.0000 0.07557  0.57449  0.92476  Biso   1.000  O
  C711     1.0000 0.15610  0.62340  0.95320  Biso   1.000  C
  O63      1.0000 0.17887  0.62632  0.93989  Biso   1.000  O
  C712     1.0000 0.18070  0.65910  0.96599  Biso   1.000  C
  C713     1.0000 0.21950  0.69380  0.96282  Biso   1.000  C
  C714     1.0000 0.15850  0.65730  0.98130  Biso   1.000  C
  O64      1.0000 0.13407  0.60381  0.90829  Biso   1.000  O
  H381     1.0000 0.23460  0.69500  0.95230  Biso   1.000  H
  C715     1.0000 0.23600  0.72650  0.97500  Biso   1.000  C
  C716     1.0000 0.17500  0.69000  0.99349  Biso   1.000  C
  H382     1.0000 0.13200  0.63360  0.98350  Biso   1.000  H
  C717     1.0000 0.21390  0.72470  0.99032  Biso   1.000  C
  H383     1.0000 0.15990  0.68880  0.00400  Biso   1.000  H
  C718     1.0000 0.23290  0.80730  0.01970  Biso   1.000  C
  H384     1.0000 0.24050  0.82700  0.01030  Biso   1.000  H
  C719     1.0000 0.22390  0.81640  0.03670  Biso   1.000  C
  H385     1.0000 0.22540  0.84230  0.03880  Biso   1.000  H
  C720     1.0000 0.15170  0.78550  0.10870  Biso   1.000  C
  H386     1.0000 0.13280  0.76090  0.10250  Biso   1.000  H
  C721     1.0000 0.14230  0.79240  0.12650  Biso   1.000  C
  C722     1.0000 0.10840  0.76120  0.13530  Biso   1.000  C
  C723     1.0000 0.07820  0.73360  0.14110  Biso   1.000  C
  C724     1.0000 0.03760  0.70120  0.14635  Biso   1.000  C
  C725     1.0000 0.01770  0.70010  0.16230  Biso   1.000  C
  C726     1.0000 0.01950  0.66790  0.13451  Biso   1.000  C
  C727     1.0000 0.97950  0.66560  0.16641  Biso   1.000  C
  H387     1.0000 0.03020  0.72290  0.17040  Biso   1.000  H
  H388     1.0000 0.03320  0.66870  0.12360  Biso   1.000  H
  C728     1.0000 0.98130  0.63340  0.13862  Biso   1.000  C
  C729     1.0000 0.95870  0.66960  0.18248  Biso   1.000  C
  C730     1.0000 0.96120  0.63220  0.15457  Biso   1.000  C
  C731     1.0000 0.96090  0.59530  0.12580  Biso   1.000  C
  C732     1.0000 0.96460  0.70760  0.18853  Biso   1.000  C
  C733     1.0000 0.93160  0.63320  0.19152  Biso   1.000  C
  H389     1.0000 0.93510  0.60860  0.15740  Biso   1.000  H
  C734     1.0000 0.98540  0.59170  0.11259  Biso   1.000  C
  C735     1.0000 0.91920  0.56530  0.12734  Biso   1.000  C
  C736     1.0000 0.94340  0.70920  0.20362  Biso   1.000  C
  H390     1.0000 0.98310  0.73250  0.18230  Biso   1.000  H
  H391     1.0000 0.92760  0.60730  0.18740  Biso   1.000  H
  C737     1.0000 0.91040  0.63480  0.20662  Biso   1.000  C
  C738     1.0000 0.96800  0.55790  0.10092  Biso   1.000  C
  H392     1.0000 0.01390  0.61220  0.11150  Biso   1.000  H
  H393     1.0000 0.90250  0.56780  0.13640  Biso   1.000  H
  C739     1.0000 0.90180  0.53150  0.11567  Biso   1.000  C
  C740     1.0000 0.91630  0.67280  0.21266  Biso   1.000  C
  H394     1.0000 0.94750  0.73520  0.20780  Biso   1.000  H
  H395     1.0000 0.89200  0.61000  0.21280  Biso   1.000  H
  C741     1.0000 0.92630  0.52790  0.10246  Biso   1.000  C
  H396     1.0000 0.98470  0.55540  0.09190  Biso   1.000  H
  H397     1.0000 0.87330  0.51100  0.11670  Biso   1.000  H
  C742     1.0000 0.88970  0.67800  0.22700  Biso   1.000  C
  C743     1.0000 0.90330  0.49530  0.08860  Biso   1.000  C
  O65      1.0000 0.89330  0.71268  0.23152  Biso   1.000  O
  O66      1.0000 0.85866  0.64242  0.23128  Biso   1.000  O
  C744     1.0000 0.96700  0.68260  0.15952  Biso   1.000  C
  C745     1.0000 0.00220  0.71860  0.15373  Biso   1.000  C
  H398     1.0000 0.01370  0.74290  0.16090  Biso   1.000  H
  C746     1.0000 0.02040  0.71890  0.13739  Biso   1.000  C
  C747     1.0000 0.00360  0.68330  0.12684  Biso   1.000  C
  H399     1.0000 0.01610  0.68360  0.11570  Biso   1.000  H
  C748     1.0000 0.96840  0.64730  0.13262  Biso   1.000  C
  C749     1.0000 0.95020  0.64700  0.14896  Biso   1.000  C
  H400     1.0000 0.92610  0.62240  0.15290  Biso   1.000  H
  C750     1.0000 0.05930  0.75500  0.13120  Biso   1.000  C
  C751     1.0000 0.08550  0.78520  0.12370  Biso   1.000  C
  C752     1.0000 0.12250  0.81700  0.11540  Biso   1.000  C
  C753     1.0000 0.12680  0.80570  0.09780  Biso   1.000  C
  H401     1.0000 0.10670  0.78070  0.09220  Biso   1.000  H
  C754     1.0000 0.21290  0.82210  0.01080  Biso   1.000  C
  H402     1.0000 0.22040  0.84080  0.00090  Biso   1.000  H
  C755     1.0000 0.20090  0.83150  0.02700  Biso   1.000  C
  H403     1.0000 0.19890  0.85600  0.02790  Biso   1.000  H
  C756     1.0000 0.19190  0.80630  0.04130  Biso   1.000  C
  C757     1.0000 0.19050  0.76720  0.03950  Biso   1.000  C
  H404     1.0000 0.18140  0.74800  0.04920  Biso   1.000  H
  C758     1.0000 0.20260  0.75790  0.02330  Biso   1.000  C
  H405     1.0000 0.20300  0.73260  0.02200  Biso   1.000  H
  C759     1.0000 0.88030  0.67830  0.22480  Biso   1.000  C
  C760     1.0000 0.90390  0.68020  0.20785  Biso   1.000  C
  C761     1.0000 0.92690  0.71760  0.19872  Biso   1.000  C
  H406     1.0000 0.92820  0.74220  0.20310  Biso   1.000  H
  C762     1.0000 0.94800  0.71890  0.18310  Biso   1.000  C
  H407     1.0000 0.96380  0.74450  0.17690  Biso   1.000  H
  C763     1.0000 0.94610  0.68290  0.17662  Biso   1.000  C
  C764     1.0000 0.92320  0.64560  0.18575  Biso   1.000  C
  H408     1.0000 0.92190  0.62100  0.18130  Biso   1.000  H
  C765     1.0000 0.90200  0.64420  0.20137  Biso   1.000  C
  H409     1.0000 0.88620  0.61870  0.20760  Biso   1.000  H
  C766     1.0000 0.91300  0.54020  0.09798  Biso   1.000  C
  C767     1.0000 0.95460  0.57020  0.09552  Biso   1.000  C
  H410     1.0000 0.97070  0.56630  0.08660  Biso   1.000  H
  C768     1.0000 0.97250  0.60580  0.10606  Biso   1.000  C
  H411     1.0000 0.00090  0.62630  0.10440  Biso   1.000  H
  C769     1.0000 0.94910  0.61160  0.11908  Biso   1.000  C
  C770     1.0000 0.90750  0.58160  0.12154  Biso   1.000  C
  H412     1.0000 0.89150  0.58550  0.13040  Biso   1.000  H
  C771     1.0000 0.88960  0.54600  0.11100  Biso   1.000  C
  H413     1.0000 0.86120  0.52550  0.11270  Biso   1.000  H
  C772     1.0000 0.90170  0.50090  0.08750  Biso   1.000  C
  C773     1.0000 0.16990  0.66640  0.96280  Biso   1.000  C
  C774     1.0000 0.20890  0.69970  0.95860  Biso   1.000  C
  H414     1.0000 0.22390  0.69780  0.94870  Biso   1.000  H
  C775     1.0000 0.22580  0.73570  0.96890  Biso   1.000  C
  C776     1.0000 0.20370  0.73840  0.98343  Biso   1.000  C
  C777     1.0000 0.16470  0.70510  0.98763  Biso   1.000  C
  H415     1.0000 0.14970  0.70700  0.99750  Biso   1.000  H
  C778     1.0000 0.14780  0.66910  0.97731  Biso   1.000  C
  H416     1.0000 0.12120  0.64640  0.98020  Biso   1.000  H
  C779     1.0000 0.15420  0.62660  0.95200  Biso   1.000  C
  C780     1.0000 0.21050  0.74960  0.04730  Biso   1.000  C
  C781     1.0000 0.21950  0.74050  0.03040  Biso   1.000  C
  H417     1.0000 0.20290  0.72990  0.05670  Biso   1.000  H
  H418     1.0000 0.21800  0.71460  0.02820  Biso   1.000  H
  O67      1.0000 0.47688  0.88056  0.95613  Biso   1.000  O
  O68      1.0000 0.49892  0.92443  0.92476  Biso   1.000  O
  C782     1.0000 0.46730  0.84390  0.95320  Biso   1.000  C
  O69      1.0000 0.44745  0.82113  0.93989  Biso   1.000  O
  C783     1.0000 0.47840  0.81930  0.96599  Biso   1.000  C
  C784     1.0000 0.47430  0.78050  0.96282  Biso   1.000  C
  C785     1.0000 0.49880  0.84150  0.98130  Biso   1.000  C
  O70      1.0000 0.46974  0.86593  0.90829  Biso   1.000  O
  H419     1.0000 0.46040  0.76540  0.95230  Biso   1.000  H
  C786     1.0000 0.49050  0.76400  0.97500  Biso   1.000  C
  C787     1.0000 0.51500  0.82500  0.99349  Biso   1.000  C
  H420     1.0000 0.50160  0.86800  0.98350  Biso   1.000  H
  C788     1.0000 0.51080  0.78610  0.99032  Biso   1.000  C
  H421     1.0000 0.52890  0.84010  0.00400  Biso   1.000  H
  C789     1.0000 0.57440  0.76710  0.01970  Biso   1.000  C
  H422     1.0000 0.58650  0.75950  0.01030  Biso   1.000  H
  C790     1.0000 0.59250  0.77610  0.03670  Biso   1.000  C
  H423     1.0000 0.61690  0.77460  0.03880  Biso   1.000  H
  C791     1.0000 0.63380  0.84830  0.10870  Biso   1.000  C
  H424     1.0000 0.62810  0.86720  0.10250  Biso   1.000  H
  C792     1.0000 0.65010  0.85770  0.12650  Biso   1.000  C
  C793     1.0000 0.65280  0.89160  0.13530  Biso   1.000  C
  C794     1.0000 0.65540  0.92180  0.14110  Biso   1.000  C
  C795     1.0000 0.66360  0.96240  0.14635  Biso   1.000  C
  C796     1.0000 0.68240  0.98230  0.16230  Biso   1.000  C
  C797     1.0000 0.64840  0.98050  0.13451  Biso   1.000  C
  C798     1.0000 0.68610  0.02050  0.16641  Biso   1.000  C
  H425     1.0000 0.69270  0.96980  0.17040  Biso   1.000  H
  H426     1.0000 0.63550  0.96680  0.12360  Biso   1.000  H
  C799     1.0000 0.65210  0.01870  0.13862  Biso   1.000  C
  C800     1.0000 0.71090  0.04130  0.18248  Biso   1.000  C
  C801     1.0000 0.67100  0.03880  0.15457  Biso   1.000  C
  C802     1.0000 0.63440  0.03910  0.12580  Biso   1.000  C
  C803     1.0000 0.74300  0.03540  0.18853  Biso   1.000  C
  C804     1.0000 0.70160  0.06840  0.19152  Biso   1.000  C
  H427     1.0000 0.67350  0.06490  0.15740  Biso   1.000  H
  C805     1.0000 0.60630  0.01460  0.11259  Biso   1.000  C
  C806     1.0000 0.64610  0.08080  0.12734  Biso   1.000  C
  C807     1.0000 0.76580  0.05660  0.20362  Biso   1.000  C
  H428     1.0000 0.74940  0.01690  0.18230  Biso   1.000  H
  H429     1.0000 0.67970  0.07240  0.18740  Biso   1.000  H
  C808     1.0000 0.72440  0.08960  0.20662  Biso   1.000  C
  C809     1.0000 0.58990  0.03200  0.10092  Biso   1.000  C
  H430     1.0000 0.59830  0.98610  0.11150  Biso   1.000  H
  H431     1.0000 0.66530  0.09750  0.13640  Biso   1.000  H
  C810     1.0000 0.62970  0.09820  0.11567  Biso   1.000  C
  C811     1.0000 0.75650  0.08370  0.21266  Biso   1.000  C
  H432     1.0000 0.78770  0.05250  0.20780  Biso   1.000  H
  H433     1.0000 0.71800  0.10800  0.21280  Biso   1.000  H
  C812     1.0000 0.60160  0.07370  0.10246  Biso   1.000  C
  H434     1.0000 0.57070  0.01530  0.09190  Biso   1.000  H
  H435     1.0000 0.63770  0.12670  0.11670  Biso   1.000  H
  C813     1.0000 0.78830  0.11030  0.22700  Biso   1.000  C
  C814     1.0000 0.59200  0.09670  0.08860  Biso   1.000  C
  O71      1.0000 0.81938  0.10670  0.23152  Biso   1.000  O
  O72      1.0000 0.78376  0.14134  0.23128  Biso   1.000  O
  C815     1.0000 0.71560  0.03300  0.15952  Biso   1.000  C
  C816     1.0000 0.71640  0.99780  0.15373  Biso   1.000  C
  H436     1.0000 0.72920  0.98630  0.16090  Biso   1.000  H
  C817     1.0000 0.69850  0.97960  0.13739  Biso   1.000  C
  C818     1.0000 0.67970  0.99640  0.12684  Biso   1.000  C
  H437     1.0000 0.66750  0.98390  0.11570  Biso   1.000  H
  C819     1.0000 0.67890  0.03160  0.13262  Biso   1.000  C
  C820     1.0000 0.69680  0.04980  0.14896  Biso   1.000  C
  H438     1.0000 0.69630  0.07390  0.15290  Biso   1.000  H
  C821     1.0000 0.69570  0.94070  0.13120  Biso   1.000  C
  C822     1.0000 0.69970  0.91450  0.12370  Biso   1.000  C
  C823     1.0000 0.69450  0.87750  0.11540  Biso   1.000  C
  C824     1.0000 0.67890  0.87320  0.09780  Biso   1.000  C
  H439     1.0000 0.67400  0.89330  0.09220  Biso   1.000  H
  C825     1.0000 0.60920  0.78710  0.01080  Biso   1.000  C
  H440     1.0000 0.62040  0.77960  0.00090  Biso   1.000  H
  C826     1.0000 0.63060  0.79910  0.02700  Biso   1.000  C
  H441     1.0000 0.65710  0.80110  0.02790  Biso   1.000  H
  C827     1.0000 0.61440  0.80810  0.04130  Biso   1.000  C
  C828     1.0000 0.57670  0.80950  0.03950  Biso   1.000  C
  H442     1.0000 0.56660  0.81860  0.04920  Biso   1.000  H
  C829     1.0000 0.55530  0.79740  0.02330  Biso   1.000  C
  H443     1.0000 0.52960  0.79700  0.02200  Biso   1.000  H
  C830     1.0000 0.79800  0.11970  0.22480  Biso   1.000  C
  C831     1.0000 0.77630  0.09610  0.20785  Biso   1.000  C
  C832     1.0000 0.79070  0.07310  0.19872  Biso   1.000  C
  H444     1.0000 0.81400  0.07180  0.20310  Biso   1.000  H
  C833     1.0000 0.77090  0.05200  0.18310  Biso   1.000  C
  H445     1.0000 0.78070  0.03620  0.17690  Biso   1.000  H
  C834     1.0000 0.73680  0.05390  0.17662  Biso   1.000  C
  C835     1.0000 0.72240  0.07680  0.18575  Biso   1.000  C
  H446     1.0000 0.69910  0.07810  0.18130  Biso   1.000  H
  C836     1.0000 0.74220  0.09800  0.20137  Biso   1.000  C
  H447     1.0000 0.73250  0.11380  0.20760  Biso   1.000  H
  C837     1.0000 0.62720  0.08700  0.09798  Biso   1.000  C
  C838     1.0000 0.61560  0.04540  0.09552  Biso   1.000  C
  H448     1.0000 0.59560  0.02930  0.08660  Biso   1.000  H
  C839     1.0000 0.63330  0.02750  0.10606  Biso   1.000  C
  H449     1.0000 0.62540  0.99910  0.10440  Biso   1.000  H
  C840     1.0000 0.66250  0.05090  0.11908  Biso   1.000  C
  C841     1.0000 0.67410  0.09250  0.12154  Biso   1.000  C
  H450     1.0000 0.69400  0.10850  0.13040  Biso   1.000  H
  C842     1.0000 0.65640  0.11040  0.11100  Biso   1.000  C
  H451     1.0000 0.66430  0.13880  0.11270  Biso   1.000  H
  C843     1.0000 0.59920  0.09830  0.08750  Biso   1.000  C
  C844     1.0000 0.49650  0.83010  0.96280  Biso   1.000  C
  C845     1.0000 0.49080  0.79110  0.95860  Biso   1.000  C
  H452     1.0000 0.47390  0.77610  0.94870  Biso   1.000  H
  C846     1.0000 0.50990  0.77420  0.96890  Biso   1.000  C
  C847     1.0000 0.53470  0.79630  0.98343  Biso   1.000  C
  C848     1.0000 0.54040  0.83530  0.98763  Biso   1.000  C
  H453     1.0000 0.55730  0.85030  0.99750  Biso   1.000  H
  C849     1.0000 0.52130  0.85220  0.97731  Biso   1.000  C
  H454     1.0000 0.52520  0.87880  0.98020  Biso   1.000  H
  C850     1.0000 0.47240  0.84580  0.95200  Biso   1.000  C
  C851     1.0000 0.53910  0.78950  0.04730  Biso   1.000  C
  C852     1.0000 0.52100  0.78050  0.03040  Biso   1.000  C
  H455     1.0000 0.52700  0.79710  0.05670  Biso   1.000  H
  H456     1.0000 0.49660  0.78200  0.02820  Biso   1.000  H
  O73      1.0000 0.52312  0.40368  0.45613  Biso   1.000  O
  O74      1.0000 0.50108  0.42551  0.42476  Biso   1.000  O
  C853     1.0000 0.53270  0.37660  0.45320  Biso   1.000  C
  O75      1.0000 0.55255  0.37368  0.43989  Biso   1.000  O
  C854     1.0000 0.52160  0.34090  0.46599  Biso   1.000  C
  C855     1.0000 0.52570  0.30620  0.46282  Biso   1.000  C
  C856     1.0000 0.50120  0.34270  0.48130  Biso   1.000  C
  O76      1.0000 0.53026  0.39619  0.40829  Biso   1.000  O
  H457     1.0000 0.53960  0.30500  0.45230  Biso   1.000  H
  C857     1.0000 0.50950  0.27350  0.47500  Biso   1.000  C
  C858     1.0000 0.48500  0.31000  0.49349  Biso   1.000  C
  H458     1.0000 0.49840  0.36640  0.48350  Biso   1.000  H
  C859     1.0000 0.48920  0.27530  0.49032  Biso   1.000  C
  H459     1.0000 0.47110  0.31120  0.50400  Biso   1.000  H
  C860     1.0000 0.42560  0.19270  0.51970  Biso   1.000  C
  H460     1.0000 0.41350  0.17300  0.51030  Biso   1.000  H
  C861     1.0000 0.40750  0.18360  0.53670  Biso   1.000  C
  H461     1.0000 0.38310  0.15770  0.53880  Biso   1.000  H
  C862     1.0000 0.36620  0.21450  0.60870  Biso   1.000  C
  H462     1.0000 0.37190  0.23910  0.60250  Biso   1.000  H
  C863     1.0000 0.34990  0.20760  0.62650  Biso   1.000  C
  C864     1.0000 0.34720  0.23880  0.63530  Biso   1.000  C
  C865     1.0000 0.34460  0.26640  0.64110  Biso   1.000  C
  C866     1.0000 0.33640  0.29880  0.64635  Biso   1.000  C
  C867     1.0000 0.31760  0.29990  0.66230  Biso   1.000  C
  C868     1.0000 0.35160  0.33210  0.63451  Biso   1.000  C
  C869     1.0000 0.31390  0.33440  0.66641  Biso   1.000  C
  H463     1.0000 0.30730  0.27710  0.67040  Biso   1.000  H
  H464     1.0000 0.36450  0.33130  0.62360  Biso   1.000  H
  C870     1.0000 0.34790  0.36660  0.63862  Biso   1.000  C
  C871     1.0000 0.28910  0.33040  0.68248  Biso   1.000  C
  C872     1.0000 0.32900  0.36780  0.65457  Biso   1.000  C
  C873     1.0000 0.36560  0.40470  0.62580  Biso   1.000  C
  C874     1.0000 0.25700  0.29240  0.68853  Biso   1.000  C
  C875     1.0000 0.29840  0.36680  0.69152  Biso   1.000  C
  H465     1.0000 0.32650  0.39140  0.65740  Biso   1.000  H
  C876     1.0000 0.39370  0.40830  0.61259  Biso   1.000  C
  C877     1.0000 0.35390  0.43470  0.62734  Biso   1.000  C
  C878     1.0000 0.23420  0.29080  0.70362  Biso   1.000  C
  H466     1.0000 0.25060  0.26750  0.68230  Biso   1.000  H
  H467     1.0000 0.32030  0.39270  0.68740  Biso   1.000  H
  C879     1.0000 0.27560  0.36520  0.70662  Biso   1.000  C
  C880     1.0000 0.41010  0.44210  0.60092  Biso   1.000  C
  H468     1.0000 0.40170  0.38780  0.61150  Biso   1.000  H
  H469     1.0000 0.33470  0.43220  0.63640  Biso   1.000  H
  C881     1.0000 0.37030  0.46850  0.61567  Biso   1.000  C
  C882     1.0000 0.24350  0.32720  0.71266  Biso   1.000  C
  H470     1.0000 0.21230  0.26480  0.70780  Biso   1.000  H
  H471     1.0000 0.28200  0.39000  0.71280  Biso   1.000  H
  C883     1.0000 0.39840  0.47210  0.60246  Biso   1.000  C
  H472     1.0000 0.42930  0.44460  0.59190  Biso   1.000  H
  H473     1.0000 0.36230  0.48900  0.61670  Biso   1.000  H
  C884     1.0000 0.21170  0.32200  0.72700  Biso   1.000  C
  C885     1.0000 0.40800  0.50470  0.58860  Biso   1.000  C
  O77      1.0000 0.18062  0.28732  0.73152  Biso   1.000  O
  O78      1.0000 0.21624  0.35758  0.73128  Biso   1.000  O
  C886     1.0000 0.28440  0.31740  0.65952  Biso   1.000  C
  C887     1.0000 0.28360  0.28140  0.65373  Biso   1.000  C
  H474     1.0000 0.27080  0.25710  0.66090  Biso   1.000  H
  C888     1.0000 0.30150  0.28110  0.63739  Biso   1.000  C
  C889     1.0000 0.32030  0.31670  0.62684  Biso   1.000  C
  H475     1.0000 0.33250  0.31640  0.61570  Biso   1.000  H
  C890     1.0000 0.32110  0.35270  0.63262  Biso   1.000  C
  C891     1.0000 0.30320  0.35300  0.64896  Biso   1.000  C
  H476     1.0000 0.30370  0.37760  0.65290  Biso   1.000  H
  C892     1.0000 0.30430  0.24500  0.63120  Biso   1.000  C
  C893     1.0000 0.30030  0.21480  0.62370  Biso   1.000  C
  C894     1.0000 0.30550  0.18300  0.61540  Biso   1.000  C
  C895     1.0000 0.32110  0.19430  0.59780  Biso   1.000  C
  H477     1.0000 0.32600  0.21930  0.59220  Biso   1.000  H
  C896     1.0000 0.39080  0.17790  0.51080  Biso   1.000  C
  H478     1.0000 0.37960  0.15920  0.50090  Biso   1.000  H
  C897     1.0000 0.36940  0.16850  0.52700  Biso   1.000  C
  H479     1.0000 0.34290  0.14400  0.52790  Biso   1.000  H
  C898     1.0000 0.38560  0.19370  0.54130  Biso   1.000  C
  C899     1.0000 0.42330  0.23280  0.53950  Biso   1.000  C
  H480     1.0000 0.43340  0.25200  0.54920  Biso   1.000  H
  C900     1.0000 0.44470  0.24210  0.52330  Biso   1.000  C
  H481     1.0000 0.47040  0.26740  0.52200  Biso   1.000  H
  C901     1.0000 0.20200  0.32170  0.72480  Biso   1.000  C
  C902     1.0000 0.22370  0.31980  0.70785  Biso   1.000  C
  C903     1.0000 0.20930  0.28240  0.69872  Biso   1.000  C
  H482     1.0000 0.18600  0.25780  0.70310  Biso   1.000  H
  C904     1.0000 0.22910  0.28110  0.68310  Biso   1.000  C
  H483     1.0000 0.21930  0.25550  0.67690  Biso   1.000  H
  C905     1.0000 0.26320  0.31710  0.67662  Biso   1.000  C
  C906     1.0000 0.27760  0.35440  0.68575  Biso   1.000  C
  H484     1.0000 0.30090  0.37900  0.68130  Biso   1.000  H
  C907     1.0000 0.25780  0.35580  0.70137  Biso   1.000  C
  H485     1.0000 0.26750  0.38130  0.70760  Biso   1.000  H
  C908     1.0000 0.37280  0.45980  0.59798  Biso   1.000  C
  C909     1.0000 0.38440  0.42980  0.59552  Biso   1.000  C
  H486     1.0000 0.40440  0.43370  0.58660  Biso   1.000  H
  C910     1.0000 0.36670  0.39420  0.60606  Biso   1.000  C
  H487     1.0000 0.37460  0.37370  0.60440  Biso   1.000  H
  C911     1.0000 0.33750  0.38840  0.61908  Biso   1.000  C
  C912     1.0000 0.32590  0.41840  0.62154  Biso   1.000  C
  H488     1.0000 0.30600  0.41450  0.63040  Biso   1.000  H
  C913     1.0000 0.34360  0.45400  0.61100  Biso   1.000  C
  H489     1.0000 0.33570  0.47450  0.61270  Biso   1.000  H
  C914     1.0000 0.40080  0.49910  0.58750  Biso   1.000  C
  C915     1.0000 0.50350  0.33360  0.46280  Biso   1.000  C
  C916     1.0000 0.50920  0.30030  0.45860  Biso   1.000  C
  H490     1.0000 0.52610  0.30220  0.44870  Biso   1.000  H
  C917     1.0000 0.49010  0.26430  0.46890  Biso   1.000  C
  C918     1.0000 0.46530  0.26160  0.48343  Biso   1.000  C
  C919     1.0000 0.45960  0.29490  0.48763  Biso   1.000  C
  H491     1.0000 0.44270  0.29300  0.49750  Biso   1.000  H
  C920     1.0000 0.47870  0.33090  0.47731  Biso   1.000  C
  H492     1.0000 0.47480  0.35360  0.48020  Biso   1.000  H
  C921     1.0000 0.52760  0.37340  0.45200  Biso   1.000  C
  C922     1.0000 0.46090  0.25040  0.54730  Biso   1.000  C
  C923     1.0000 0.47900  0.25950  0.53040  Biso   1.000  C
  H493     1.0000 0.47300  0.27010  0.55670  Biso   1.000  H
  H494     1.0000 0.50340  0.28540  0.52820  Biso   1.000  H
  O79      1.0000 0.59632  0.11944  0.45613  Biso   1.000  O
  O80      1.0000 0.57449  0.07557  0.42476  Biso   1.000  O
  C924     1.0000 0.62340  0.15610  0.45320  Biso   1.000  C
  O81      1.0000 0.62632  0.17887  0.43989  Biso   1.000  O
  C925     1.0000 0.65910  0.18070  0.46599  Biso   1.000  C
  C926     1.0000 0.69380  0.21950  0.46282  Biso   1.000  C
  C927     1.0000 0.65730  0.15850  0.48130  Biso   1.000  C
  O82      1.0000 0.60381  0.13407  0.40829  Biso   1.000  O
  H495     1.0000 0.69500  0.23460  0.45230  Biso   1.000  H
  C928     1.0000 0.72650  0.23600  0.47500  Biso   1.000  C
  C929     1.0000 0.69000  0.17500  0.49349  Biso   1.000  C
  H496     1.0000 0.63360  0.13200  0.48350  Biso   1.000  H
  C930     1.0000 0.72470  0.21390  0.49032  Biso   1.000  C
  H497     1.0000 0.68880  0.15990  0.50400  Biso   1.000  H
  C931     1.0000 0.80730  0.23290  0.51970  Biso   1.000  C
  H498     1.0000 0.82700  0.24050  0.51030  Biso   1.000  H
  C932     1.0000 0.81640  0.22390  0.53670  Biso   1.000  C
  H499     1.0000 0.84230  0.22540  0.53880  Biso   1.000  H
  C933     1.0000 0.78550  0.15170  0.60870  Biso   1.000  C
  H500     1.0000 0.76090  0.13280  0.60250  Biso   1.000  H
  C934     1.0000 0.79240  0.14230  0.62650  Biso   1.000  C
  C935     1.0000 0.76120  0.10840  0.63530  Biso   1.000  C
  C936     1.0000 0.73360  0.07820  0.64110  Biso   1.000  C
  C937     1.0000 0.70120  0.03760  0.64635  Biso   1.000  C
  C938     1.0000 0.70010  0.01770  0.66230  Biso   1.000  C
  C939     1.0000 0.66790  0.01950  0.63451  Biso   1.000  C
  C940     1.0000 0.66560  0.97950  0.66641  Biso   1.000  C
  H501     1.0000 0.72290  0.03020  0.67040  Biso   1.000  H
  H502     1.0000 0.66870  0.03320  0.62360  Biso   1.000  H
  C941     1.0000 0.63340  0.98130  0.63862  Biso   1.000  C
  C942     1.0000 0.66960  0.95870  0.68248  Biso   1.000  C
  C943     1.0000 0.63220  0.96120  0.65457  Biso   1.000  C
  C944     1.0000 0.59530  0.96090  0.62580  Biso   1.000  C
  C945     1.0000 0.70760  0.96460  0.68853  Biso   1.000  C
  C946     1.0000 0.63320  0.93160  0.69152  Biso   1.000  C
  H503     1.0000 0.60860  0.93510  0.65740  Biso   1.000  H
  C947     1.0000 0.59170  0.98540  0.61259  Biso   1.000  C
  C948     1.0000 0.56530  0.91920  0.62734  Biso   1.000  C
  C949     1.0000 0.70920  0.94340  0.70362  Biso   1.000  C
  H504     1.0000 0.73250  0.98310  0.68230  Biso   1.000  H
  H505     1.0000 0.60730  0.92760  0.68740  Biso   1.000  H
  C950     1.0000 0.63480  0.91040  0.70662  Biso   1.000  C
  C951     1.0000 0.55790  0.96800  0.60092  Biso   1.000  C
  H506     1.0000 0.61220  0.01390  0.61150  Biso   1.000  H
  H507     1.0000 0.56780  0.90250  0.63640  Biso   1.000  H
  C952     1.0000 0.53150  0.90180  0.61567  Biso   1.000  C
  C953     1.0000 0.67280  0.91630  0.71266  Biso   1.000  C
  H508     1.0000 0.73520  0.94750  0.70780  Biso   1.000  H
  H509     1.0000 0.61000  0.89200  0.71280  Biso   1.000  H
  C954     1.0000 0.52790  0.92630  0.60246  Biso   1.000  C
  H510     1.0000 0.55540  0.98470  0.59190  Biso   1.000  H
  H511     1.0000 0.51100  0.87330  0.61670  Biso   1.000  H
  C955     1.0000 0.67800  0.88970  0.72700  Biso   1.000  C
  C956     1.0000 0.49530  0.90330  0.58860  Biso   1.000  C
  O83      1.0000 0.71268  0.89330  0.73152  Biso   1.000  O
  O84      1.0000 0.64242  0.85866  0.73128  Biso   1.000  O
  C957     1.0000 0.68260  0.96700  0.65952  Biso   1.000  C
  C958     1.0000 0.71860  0.00220  0.65373  Biso   1.000  C
  H512     1.0000 0.74290  0.01370  0.66090  Biso   1.000  H
  C959     1.0000 0.71890  0.02040  0.63739  Biso   1.000  C
  C960     1.0000 0.68330  0.00360  0.62684  Biso   1.000  C
  H513     1.0000 0.68360  0.01610  0.61570  Biso   1.000  H
  C961     1.0000 0.64730  0.96840  0.63262  Biso   1.000  C
  C962     1.0000 0.64700  0.95020  0.64896  Biso   1.000  C
  H514     1.0000 0.62240  0.92610  0.65290  Biso   1.000  H
  C963     1.0000 0.75500  0.05930  0.63120  Biso   1.000  C
  C964     1.0000 0.78520  0.08550  0.62370  Biso   1.000  C
  C965     1.0000 0.81700  0.12250  0.61540  Biso   1.000  C
  C966     1.0000 0.80570  0.12680  0.59780  Biso   1.000  C
  H515     1.0000 0.78070  0.10670  0.59220  Biso   1.000  H
  C967     1.0000 0.82210  0.21290  0.51080  Biso   1.000  C
  H516     1.0000 0.84080  0.22040  0.50090  Biso   1.000  H
  C968     1.0000 0.83150  0.20090  0.52700  Biso   1.000  C
  H517     1.0000 0.85600  0.19890  0.52790  Biso   1.000  H
  C969     1.0000 0.80630  0.19190  0.54130  Biso   1.000  C
  C970     1.0000 0.76720  0.19050  0.53950  Biso   1.000  C
  H518     1.0000 0.74800  0.18140  0.54920  Biso   1.000  H
  C971     1.0000 0.75790  0.20260  0.52330  Biso   1.000  C
  H519     1.0000 0.73260  0.20300  0.52200  Biso   1.000  H
  C972     1.0000 0.67830  0.88030  0.72480  Biso   1.000  C
  C973     1.0000 0.68020  0.90390  0.70785  Biso   1.000  C
  C974     1.0000 0.71760  0.92690  0.69872  Biso   1.000  C
  H520     1.0000 0.74220  0.92820  0.70310  Biso   1.000  H
  C975     1.0000 0.71890  0.94800  0.68310  Biso   1.000  C
  H521     1.0000 0.74450  0.96380  0.67690  Biso   1.000  H
  C976     1.0000 0.68290  0.94610  0.67662  Biso   1.000  C
  C977     1.0000 0.64560  0.92320  0.68575  Biso   1.000  C
  H522     1.0000 0.62100  0.92190  0.68130  Biso   1.000  H
  C978     1.0000 0.64420  0.90200  0.70137  Biso   1.000  C
  H523     1.0000 0.61870  0.88620  0.70760  Biso   1.000  H
  C979     1.0000 0.54020  0.91300  0.59798  Biso   1.000  C
  C980     1.0000 0.57020  0.95460  0.59552  Biso   1.000  C
  H524     1.0000 0.56630  0.97070  0.58660  Biso   1.000  H
  C981     1.0000 0.60580  0.97250  0.60606  Biso   1.000  C
  H525     1.0000 0.62630  0.00090  0.60440  Biso   1.000  H
  C982     1.0000 0.61160  0.94910  0.61908  Biso   1.000  C
  C983     1.0000 0.58160  0.90750  0.62154  Biso   1.000  C
  H526     1.0000 0.58550  0.89150  0.63040  Biso   1.000  H
  C984     1.0000 0.54600  0.88960  0.61100  Biso   1.000  C
  H527     1.0000 0.52550  0.86120  0.61270  Biso   1.000  H
  C985     1.0000 0.50090  0.90170  0.58750  Biso   1.000  C
  C986     1.0000 0.66640  0.16990  0.46280  Biso   1.000  C
  C987     1.0000 0.69970  0.20890  0.45860  Biso   1.000  C
  H528     1.0000 0.69780  0.22390  0.44870  Biso   1.000  H
  C988     1.0000 0.73570  0.22580  0.46890  Biso   1.000  C
  C989     1.0000 0.73840  0.20370  0.48343  Biso   1.000  C
  C990     1.0000 0.70510  0.16470  0.48763  Biso   1.000  C
  H529     1.0000 0.70700  0.14970  0.49750  Biso   1.000  H
  C991     1.0000 0.66910  0.14780  0.47731  Biso   1.000  C
  H530     1.0000 0.64640  0.12120  0.48020  Biso   1.000  H
  C992     1.0000 0.62660  0.15420  0.45200  Biso   1.000  C
  C993     1.0000 0.74960  0.21050  0.54730  Biso   1.000  C
  C994     1.0000 0.74050  0.21950  0.53040  Biso   1.000  C
  H531     1.0000 0.72990  0.20290  0.55670  Biso   1.000  H
  H532     1.0000 0.71460  0.21800  0.52820  Biso   1.000  H
  O85      1.0000 0.88056  0.47688  0.45613  Biso   1.000  O
  O86      1.0000 0.92443  0.49892  0.42476  Biso   1.000  O
  C995     1.0000 0.84390  0.46730  0.45320  Biso   1.000  C
  O87      1.0000 0.82113  0.44745  0.43989  Biso   1.000  O
  C996     1.0000 0.81930  0.47840  0.46599  Biso   1.000  C
  C997     1.0000 0.78050  0.47430  0.46282  Biso   1.000  C
  C998     1.0000 0.84150  0.49880  0.48130  Biso   1.000  C
  O88      1.0000 0.86593  0.46974  0.40829  Biso   1.000  O
  H533     1.0000 0.76540  0.46040  0.45230  Biso   1.000  H
  C999     1.0000 0.76400  0.49050  0.47500  Biso   1.000  C
  C1000    1.0000 0.82500  0.51500  0.49349  Biso   1.000  C
  H534     1.0000 0.86800  0.50160  0.48350  Biso   1.000  H
  C1001    1.0000 0.78610  0.51080  0.49032  Biso   1.000  C
  H535     1.0000 0.84010  0.52890  0.50400  Biso   1.000  H
  C1002    1.0000 0.76710  0.57440  0.51970  Biso   1.000  C
  H536     1.0000 0.75950  0.58650  0.51030  Biso   1.000  H
  C1003    1.0000 0.77610  0.59250  0.53670  Biso   1.000  C
  H537     1.0000 0.77460  0.61690  0.53880  Biso   1.000  H
  C1004    1.0000 0.84830  0.63380  0.60870  Biso   1.000  C
  H538     1.0000 0.86720  0.62810  0.60250  Biso   1.000  H
  C1005    1.0000 0.85770  0.65010  0.62650  Biso   1.000  C
  C1006    1.0000 0.89160  0.65280  0.63530  Biso   1.000  C
  C1007    1.0000 0.92180  0.65540  0.64110  Biso   1.000  C
  C1008    1.0000 0.96240  0.66360  0.64635  Biso   1.000  C
  C1009    1.0000 0.98230  0.68240  0.66230  Biso   1.000  C
  C1010    1.0000 0.98050  0.64840  0.63451  Biso   1.000  C
  C1011    1.0000 0.02050  0.68610  0.66641  Biso   1.000  C
  H539     1.0000 0.96980  0.69270  0.67040  Biso   1.000  H
  H540     1.0000 0.96680  0.63550  0.62360  Biso   1.000  H
  C1012    1.0000 0.01870  0.65210  0.63862  Biso   1.000  C
  C1013    1.0000 0.04130  0.71090  0.68248  Biso   1.000  C
  C1014    1.0000 0.03880  0.67100  0.65457  Biso   1.000  C
  C1015    1.0000 0.03910  0.63440  0.62580  Biso   1.000  C
  C1016    1.0000 0.03540  0.74300  0.68853  Biso   1.000  C
  C1017    1.0000 0.06840  0.70160  0.69152  Biso   1.000  C
  H541     1.0000 0.06490  0.67350  0.65740  Biso   1.000  H
  C1018    1.0000 0.01460  0.60630  0.61259  Biso   1.000  C
  C1019    1.0000 0.08080  0.64610  0.62734  Biso   1.000  C
  C1020    1.0000 0.05660  0.76580  0.70362  Biso   1.000  C
  H542     1.0000 0.01690  0.74940  0.68230  Biso   1.000  H
  H543     1.0000 0.07240  0.67970  0.68740  Biso   1.000  H
  C1021    1.0000 0.08960  0.72440  0.70662  Biso   1.000  C
  C1022    1.0000 0.03200  0.58990  0.60092  Biso   1.000  C
  H544     1.0000 0.98610  0.59830  0.61150  Biso   1.000  H
  H545     1.0000 0.09750  0.66530  0.63640  Biso   1.000  H
  C1023    1.0000 0.09820  0.62970  0.61567  Biso   1.000  C
  C1024    1.0000 0.08370  0.75650  0.71266  Biso   1.000  C
  H546     1.0000 0.05250  0.78770  0.70780  Biso   1.000  H
  H547     1.0000 0.10800  0.71800  0.71280  Biso   1.000  H
  C1025    1.0000 0.07370  0.60160  0.60246  Biso   1.000  C
  H548     1.0000 0.01530  0.57070  0.59190  Biso   1.000  H
  H549     1.0000 0.12670  0.63770  0.61670  Biso   1.000  H
  C1026    1.0000 0.11030  0.78830  0.72700  Biso   1.000  C
  C1027    1.0000 0.09670  0.59200  0.58860  Biso   1.000  C
  O89      1.0000 0.10670  0.81938  0.73152  Biso   1.000  O
  O90      1.0000 0.14134  0.78376  0.73128  Biso   1.000  O
  C1028    1.0000 0.03300  0.71560  0.65952  Biso   1.000  C
  C1029    1.0000 0.99780  0.71640  0.65373  Biso   1.000  C
  H550     1.0000 0.98630  0.72920  0.66090  Biso   1.000  H
  C1030    1.0000 0.97960  0.69850  0.63739  Biso   1.000  C
  C1031    1.0000 0.99640  0.67970  0.62684  Biso   1.000  C
  H551     1.0000 0.98390  0.66750  0.61570  Biso   1.000  H
  C1032    1.0000 0.03160  0.67890  0.63262  Biso   1.000  C
  C1033    1.0000 0.04980  0.69680  0.64896  Biso   1.000  C
  H552     1.0000 0.07390  0.69630  0.65290  Biso   1.000  H
  C1034    1.0000 0.94070  0.69570  0.63120  Biso   1.000  C
  C1035    1.0000 0.91450  0.69970  0.62370  Biso   1.000  C
  C1036    1.0000 0.87750  0.69450  0.61540  Biso   1.000  C
  C1037    1.0000 0.87320  0.67890  0.59780  Biso   1.000  C
  H553     1.0000 0.89330  0.67400  0.59220  Biso   1.000  H
  C1038    1.0000 0.78710  0.60920  0.51080  Biso   1.000  C
  H554     1.0000 0.77960  0.62040  0.50090  Biso   1.000  H
  C1039    1.0000 0.79910  0.63060  0.52700  Biso   1.000  C
  H555     1.0000 0.80110  0.65710  0.52790  Biso   1.000  H
  C1040    1.0000 0.80810  0.61440  0.54130  Biso   1.000  C
  C1041    1.0000 0.80950  0.57670  0.53950  Biso   1.000  C
  H556     1.0000 0.81860  0.56660  0.54920  Biso   1.000  H
  C1042    1.0000 0.79740  0.55530  0.52330  Biso   1.000  C
  H557     1.0000 0.79700  0.52960  0.52200  Biso   1.000  H
  C1043    1.0000 0.11970  0.79800  0.72480  Biso   1.000  C
  C1044    1.0000 0.09610  0.77630  0.70785  Biso   1.000  C
  C1045    1.0000 0.07310  0.79070  0.69872  Biso   1.000  C
  H558     1.0000 0.07180  0.81400  0.70310  Biso   1.000  H
  C1046    1.0000 0.05200  0.77090  0.68310  Biso   1.000  C
  H559     1.0000 0.03620  0.78070  0.67690  Biso   1.000  H
  C1047    1.0000 0.05390  0.73680  0.67662  Biso   1.000  C
  C1048    1.0000 0.07680  0.72240  0.68575  Biso   1.000  C
  H560     1.0000 0.07810  0.69910  0.68130  Biso   1.000  H
  C1049    1.0000 0.09800  0.74220  0.70137  Biso   1.000  C
  H561     1.0000 0.11380  0.73250  0.70760  Biso   1.000  H
  C1050    1.0000 0.08700  0.62720  0.59798  Biso   1.000  C
  C1051    1.0000 0.04540  0.61560  0.59552  Biso   1.000  C
  H562     1.0000 0.02930  0.59560  0.58660  Biso   1.000  H
  C1052    1.0000 0.02750  0.63330  0.60606  Biso   1.000  C
  H563     1.0000 0.99910  0.62540  0.60440  Biso   1.000  H
  C1053    1.0000 0.05090  0.66250  0.61908  Biso   1.000  C
  C1054    1.0000 0.09250  0.67410  0.62154  Biso   1.000  C
  H564     1.0000 0.10850  0.69400  0.63040  Biso   1.000  H
  C1055    1.0000 0.11040  0.65640  0.61100  Biso   1.000  C
  H565     1.0000 0.13880  0.66430  0.61270  Biso   1.000  H
  C1056    1.0000 0.09830  0.59920  0.58750  Biso   1.000  C
  C1057    1.0000 0.83010  0.49650  0.46280  Biso   1.000  C
  C1058    1.0000 0.79110  0.49080  0.45860  Biso   1.000  C
  H566     1.0000 0.77610  0.47390  0.44870  Biso   1.000  H
  C1059    1.0000 0.77420  0.50990  0.46890  Biso   1.000  C
  C1060    1.0000 0.79630  0.53470  0.48343  Biso   1.000  C
  C1061    1.0000 0.83530  0.54040  0.48763  Biso   1.000  C
  H567     1.0000 0.85030  0.55730  0.49750  Biso   1.000  H
  C1062    1.0000 0.85220  0.52130  0.47731  Biso   1.000  C
  H568     1.0000 0.87880  0.52520  0.48020  Biso   1.000  H
  C1063    1.0000 0.84580  0.47240  0.45200  Biso   1.000  C
  C1064    1.0000 0.78950  0.53910  0.54730  Biso   1.000  C
  C1065    1.0000 0.78050  0.52100  0.53040  Biso   1.000  C
  H569     1.0000 0.79710  0.52700  0.55670  Biso   1.000  H
  H570     1.0000 0.78200  0.49660  0.52820  Biso   1.000  H
  O91      1.0000 0.47688  0.59632  0.95613  Biso   1.000  O
  O92      1.0000 0.49892  0.57449  0.92476  Biso   1.000  O
  C1066    1.0000 0.46730  0.62340  0.95320  Biso   1.000  C
  O93      1.0000 0.44745  0.62632  0.93989  Biso   1.000  O
  C1067    1.0000 0.47840  0.65910  0.96599  Biso   1.000  C
  C1068    1.0000 0.47430  0.69380  0.96282  Biso   1.000  C
  C1069    1.0000 0.49880  0.65730  0.98130  Biso   1.000  C
  O94      1.0000 0.46974  0.60381  0.90829  Biso   1.000  O
  H571     1.0000 0.46040  0.69500  0.95230  Biso   1.000  H
  C1070    1.0000 0.49050  0.72650  0.97500  Biso   1.000  C
  C1071    1.0000 0.51500  0.69000  0.99349  Biso   1.000  C
  H572     1.0000 0.50160  0.63360  0.98350  Biso   1.000  H
  C1072    1.0000 0.51080  0.72470  0.99032  Biso   1.000  C
  H573     1.0000 0.52890  0.68880  0.00400  Biso   1.000  H
  C1073    1.0000 0.57440  0.80730  0.01970  Biso   1.000  C
  H574     1.0000 0.58650  0.82700  0.01030  Biso   1.000  H
  C1074    1.0000 0.59250  0.81640  0.03670  Biso   1.000  C
  H575     1.0000 0.61690  0.84230  0.03880  Biso   1.000  H
  C1075    1.0000 0.63380  0.78550  0.10870  Biso   1.000  C
  H576     1.0000 0.62810  0.76090  0.10250  Biso   1.000  H
  C1076    1.0000 0.65010  0.79240  0.12650  Biso   1.000  C
  C1077    1.0000 0.65280  0.76120  0.13530  Biso   1.000  C
  C1078    1.0000 0.65540  0.73360  0.14110  Biso   1.000  C
  C1079    1.0000 0.66360  0.70120  0.14635  Biso   1.000  C
  C1080    1.0000 0.68240  0.70010  0.16230  Biso   1.000  C
  C1081    1.0000 0.64840  0.66790  0.13451  Biso   1.000  C
  C1082    1.0000 0.68610  0.66560  0.16641  Biso   1.000  C
  H577     1.0000 0.69270  0.72290  0.17040  Biso   1.000  H
  H578     1.0000 0.63550  0.66870  0.12360  Biso   1.000  H
  C1083    1.0000 0.65210  0.63340  0.13862  Biso   1.000  C
  C1084    1.0000 0.71090  0.66960  0.18248  Biso   1.000  C
  C1085    1.0000 0.67100  0.63220  0.15457  Biso   1.000  C
  C1086    1.0000 0.63440  0.59530  0.12580  Biso   1.000  C
  C1087    1.0000 0.74300  0.70760  0.18853  Biso   1.000  C
  C1088    1.0000 0.70160  0.63320  0.19152  Biso   1.000  C
  H579     1.0000 0.67350  0.60860  0.15740  Biso   1.000  H
  C1089    1.0000 0.60630  0.59170  0.11259  Biso   1.000  C
  C1090    1.0000 0.64610  0.56530  0.12734  Biso   1.000  C
  C1091    1.0000 0.76580  0.70920  0.20362  Biso   1.000  C
  H580     1.0000 0.74940  0.73250  0.18230  Biso   1.000  H
  H581     1.0000 0.67970  0.60730  0.18740  Biso   1.000  H
  C1092    1.0000 0.72440  0.63480  0.20662  Biso   1.000  C
  C1093    1.0000 0.58990  0.55790  0.10092  Biso   1.000  C
  H582     1.0000 0.59830  0.61220  0.11150  Biso   1.000  H
  H583     1.0000 0.66530  0.56780  0.13640  Biso   1.000  H
  C1094    1.0000 0.62970  0.53150  0.11567  Biso   1.000  C
  C1095    1.0000 0.75650  0.67280  0.21266  Biso   1.000  C
  H584     1.0000 0.78770  0.73520  0.20780  Biso   1.000  H
  H585     1.0000 0.71800  0.61000  0.21280  Biso   1.000  H
  C1096    1.0000 0.60160  0.52790  0.10246  Biso   1.000  C
  H586     1.0000 0.57070  0.55540  0.09190  Biso   1.000  H
  H587     1.0000 0.63770  0.51100  0.11670  Biso   1.000  H
  C1097    1.0000 0.78830  0.67800  0.22700  Biso   1.000  C
  C1098    1.0000 0.59200  0.49530  0.08860  Biso   1.000  C
  O95      1.0000 0.81938  0.71268  0.23152  Biso   1.000  O
  O96      1.0000 0.78376  0.64242  0.23128  Biso   1.000  O
  C1099    1.0000 0.71560  0.68260  0.15952  Biso   1.000  C
  C1100    1.0000 0.71640  0.71860  0.15373  Biso   1.000  C
  H588     1.0000 0.72920  0.74290  0.16090  Biso   1.000  H
  C1101    1.0000 0.69850  0.71890  0.13739  Biso   1.000  C
  C1102    1.0000 0.67970  0.68330  0.12684  Biso   1.000  C
  H589     1.0000 0.66750  0.68360  0.11570  Biso   1.000  H
  C1103    1.0000 0.67890  0.64730  0.13262  Biso   1.000  C
  C1104    1.0000 0.69680  0.64700  0.14896  Biso   1.000  C
  H590     1.0000 0.69630  0.62240  0.15290  Biso   1.000  H
  C1105    1.0000 0.69570  0.75500  0.13120  Biso   1.000  C
  C1106    1.0000 0.69970  0.78520  0.12370  Biso   1.000  C
  C1107    1.0000 0.69450  0.81700  0.11540  Biso   1.000  C
  C1108    1.0000 0.67890  0.80570  0.09780  Biso   1.000  C
  H591     1.0000 0.67400  0.78070  0.09220  Biso   1.000  H
  C1109    1.0000 0.60920  0.82210  0.01080  Biso   1.000  C
  H592     1.0000 0.62040  0.84080  0.00090  Biso   1.000  H
  C1110    1.0000 0.63060  0.83150  0.02700  Biso   1.000  C
  H593     1.0000 0.65710  0.85600  0.02790  Biso   1.000  H
  C1111    1.0000 0.61440  0.80630  0.04130  Biso   1.000  C
  C1112    1.0000 0.57670  0.76720  0.03950  Biso   1.000  C
  H594     1.0000 0.56660  0.74800  0.04920  Biso   1.000  H
  C1113    1.0000 0.55530  0.75790  0.02330  Biso   1.000  C
  H595     1.0000 0.52960  0.73260  0.02200  Biso   1.000  H
  C1114    1.0000 0.79800  0.67830  0.22480  Biso   1.000  C
  C1115    1.0000 0.77630  0.68020  0.20785  Biso   1.000  C
  C1116    1.0000 0.79070  0.71760  0.19872  Biso   1.000  C
  H596     1.0000 0.81400  0.74220  0.20310  Biso   1.000  H
  C1117    1.0000 0.77090  0.71890  0.18310  Biso   1.000  C
  H597     1.0000 0.78070  0.74450  0.17690  Biso   1.000  H
  C1118    1.0000 0.73680  0.68290  0.17662  Biso   1.000  C
  C1119    1.0000 0.72240  0.64560  0.18575  Biso   1.000  C
  H598     1.0000 0.69910  0.62100  0.18130  Biso   1.000  H
  C1120    1.0000 0.74220  0.64420  0.20137  Biso   1.000  C
  H599     1.0000 0.73250  0.61870  0.20760  Biso   1.000  H
  C1121    1.0000 0.62720  0.54020  0.09798  Biso   1.000  C
  C1122    1.0000 0.61560  0.57020  0.09552  Biso   1.000  C
  H600     1.0000 0.59560  0.56630  0.08660  Biso   1.000  H
  C1123    1.0000 0.63330  0.60580  0.10606  Biso   1.000  C
  H601     1.0000 0.62540  0.62630  0.10440  Biso   1.000  H
  C1124    1.0000 0.66250  0.61160  0.11908  Biso   1.000  C
  C1125    1.0000 0.67410  0.58160  0.12154  Biso   1.000  C
  H602     1.0000 0.69400  0.58550  0.13040  Biso   1.000  H
  C1126    1.0000 0.65640  0.54600  0.11100  Biso   1.000  C
  H603     1.0000 0.66430  0.52550  0.11270  Biso   1.000  H
  C1127    1.0000 0.59920  0.50090  0.08750  Biso   1.000  C
  C1128    1.0000 0.49650  0.66640  0.96280  Biso   1.000  C
  C1129    1.0000 0.49080  0.69970  0.95860  Biso   1.000  C
  H604     1.0000 0.47390  0.69780  0.94870  Biso   1.000  H
  C1130    1.0000 0.50990  0.73570  0.96890  Biso   1.000  C
  C1131    1.0000 0.53470  0.73840  0.98343  Biso   1.000  C
  C1132    1.0000 0.54040  0.70510  0.98763  Biso   1.000  C
  H605     1.0000 0.55730  0.70700  0.99750  Biso   1.000  H
  C1133    1.0000 0.52130  0.66910  0.97731  Biso   1.000  C
  H606     1.0000 0.52520  0.64640  0.98020  Biso   1.000  H
  C1134    1.0000 0.47240  0.62660  0.95200  Biso   1.000  C
  C1135    1.0000 0.53910  0.74960  0.04730  Biso   1.000  C
  C1136    1.0000 0.52100  0.74050  0.03040  Biso   1.000  C
  H607     1.0000 0.52700  0.72990  0.05670  Biso   1.000  H
  H608     1.0000 0.49660  0.71460  0.02820  Biso   1.000  H
  O97      1.0000 0.40368  0.88056  0.95613  Biso   1.000  O
  O98      1.0000 0.42551  0.92443  0.92476  Biso   1.000  O
  C1137    1.0000 0.37660  0.84390  0.95320  Biso   1.000  C
  O99      1.0000 0.37368  0.82113  0.93989  Biso   1.000  O
  C1138    1.0000 0.34090  0.81930  0.96599  Biso   1.000  C
  C1139    1.0000 0.30620  0.78050  0.96282  Biso   1.000  C
  C1140    1.0000 0.34270  0.84150  0.98130  Biso   1.000  C
  O100     1.0000 0.39619  0.86593  0.90829  Biso   1.000  O
  H609     1.0000 0.30500  0.76540  0.95230  Biso   1.000  H
  C1141    1.0000 0.27350  0.76400  0.97500  Biso   1.000  C
  C1142    1.0000 0.31000  0.82500  0.99349  Biso   1.000  C
  H610     1.0000 0.36640  0.86800  0.98350  Biso   1.000  H
  C1143    1.0000 0.27530  0.78610  0.99032  Biso   1.000  C
  H611     1.0000 0.31120  0.84010  0.00400  Biso   1.000  H
  C1144    1.0000 0.19270  0.76710  0.01970  Biso   1.000  C
  H612     1.0000 0.17300  0.75950  0.01030  Biso   1.000  H
  C1145    1.0000 0.18360  0.77610  0.03670  Biso   1.000  C
  H613     1.0000 0.15770  0.77460  0.03880  Biso   1.000  H
  C1146    1.0000 0.21450  0.84830  0.10870  Biso   1.000  C
  H614     1.0000 0.23910  0.86720  0.10250  Biso   1.000  H
  C1147    1.0000 0.20760  0.85770  0.12650  Biso   1.000  C
  C1148    1.0000 0.23880  0.89160  0.13530  Biso   1.000  C
  C1149    1.0000 0.26640  0.92180  0.14110  Biso   1.000  C
  C1150    1.0000 0.29880  0.96240  0.14635  Biso   1.000  C
  C1151    1.0000 0.29990  0.98230  0.16230  Biso   1.000  C
  C1152    1.0000 0.33210  0.98050  0.13451  Biso   1.000  C
  C1153    1.0000 0.33440  0.02050  0.16641  Biso   1.000  C
  H615     1.0000 0.27710  0.96980  0.17040  Biso   1.000  H
  H616     1.0000 0.33130  0.96680  0.12360  Biso   1.000  H
  C1154    1.0000 0.36660  0.01870  0.13862  Biso   1.000  C
  C1155    1.0000 0.33040  0.04130  0.18248  Biso   1.000  C
  C1156    1.0000 0.36780  0.03880  0.15457  Biso   1.000  C
  C1157    1.0000 0.40470  0.03910  0.12580  Biso   1.000  C
  C1158    1.0000 0.29240  0.03540  0.18853  Biso   1.000  C
  C1159    1.0000 0.36680  0.06840  0.19152  Biso   1.000  C
  H617     1.0000 0.39140  0.06490  0.15740  Biso   1.000  H
  C1160    1.0000 0.40830  0.01460  0.11259  Biso   1.000  C
  C1161    1.0000 0.43470  0.08080  0.12734  Biso   1.000  C
  C1162    1.0000 0.29080  0.05660  0.20362  Biso   1.000  C
  H618     1.0000 0.26750  0.01690  0.18230  Biso   1.000  H
  H619     1.0000 0.39270  0.07240  0.18740  Biso   1.000  H
  C1163    1.0000 0.36520  0.08960  0.20662  Biso   1.000  C
  C1164    1.0000 0.44210  0.03200  0.10092  Biso   1.000  C
  H620     1.0000 0.38780  0.98610  0.11150  Biso   1.000  H
  H621     1.0000 0.43220  0.09750  0.13640  Biso   1.000  H
  C1165    1.0000 0.46850  0.09820  0.11567  Biso   1.000  C
  C1166    1.0000 0.32720  0.08370  0.21266  Biso   1.000  C
  H622     1.0000 0.26480  0.05250  0.20780  Biso   1.000  H
  H623     1.0000 0.39000  0.10800  0.21280  Biso   1.000  H
  C1167    1.0000 0.47210  0.07370  0.10246  Biso   1.000  C
  H624     1.0000 0.44460  0.01530  0.09190  Biso   1.000  H
  H625     1.0000 0.48900  0.12670  0.11670  Biso   1.000  H
  C1168    1.0000 0.32200  0.11030  0.22700  Biso   1.000  C
  C1169    1.0000 0.50470  0.09670  0.08860  Biso   1.000  C
  O101     1.0000 0.28732  0.10670  0.23152  Biso   1.000  O
  O102     1.0000 0.35758  0.14134  0.23128  Biso   1.000  O
  C1170    1.0000 0.31740  0.03300  0.15952  Biso   1.000  C
  C1171    1.0000 0.28140  0.99780  0.15373  Biso   1.000  C
  H626     1.0000 0.25710  0.98630  0.16090  Biso   1.000  H
  C1172    1.0000 0.28110  0.97960  0.13739  Biso   1.000  C
  C1173    1.0000 0.31670  0.99640  0.12684  Biso   1.000  C
  H627     1.0000 0.31640  0.98390  0.11570  Biso   1.000  H
  C1174    1.0000 0.35270  0.03160  0.13262  Biso   1.000  C
  C1175    1.0000 0.35300  0.04980  0.14896  Biso   1.000  C
  H628     1.0000 0.37760  0.07390  0.15290  Biso   1.000  H
  C1176    1.0000 0.24500  0.94070  0.13120  Biso   1.000  C
  C1177    1.0000 0.21480  0.91450  0.12370  Biso   1.000  C
  C1178    1.0000 0.18300  0.87750  0.11540  Biso   1.000  C
  C1179    1.0000 0.19430  0.87320  0.09780  Biso   1.000  C
  H629     1.0000 0.21930  0.89330  0.09220  Biso   1.000  H
  C1180    1.0000 0.17790  0.78710  0.01080  Biso   1.000  C
  H630     1.0000 0.15920  0.77960  0.00090  Biso   1.000  H
  C1181    1.0000 0.16850  0.79910  0.02700  Biso   1.000  C
  H631     1.0000 0.14400  0.80110  0.02790  Biso   1.000  H
  C1182    1.0000 0.19370  0.80810  0.04130  Biso   1.000  C
  C1183    1.0000 0.23280  0.80950  0.03950  Biso   1.000  C
  H632     1.0000 0.25200  0.81860  0.04920  Biso   1.000  H
  C1184    1.0000 0.24210  0.79740  0.02330  Biso   1.000  C
  H633     1.0000 0.26740  0.79700  0.02200  Biso   1.000  H
  C1185    1.0000 0.32170  0.11970  0.22480  Biso   1.000  C
  C1186    1.0000 0.31980  0.09610  0.20785  Biso   1.000  C
  C1187    1.0000 0.28240  0.07310  0.19872  Biso   1.000  C
  H634     1.0000 0.25780  0.07180  0.20310  Biso   1.000  H
  C1188    1.0000 0.28110  0.05200  0.18310  Biso   1.000  C
  H635     1.0000 0.25550  0.03620  0.17690  Biso   1.000  H
  C1189    1.0000 0.31710  0.05390  0.17662  Biso   1.000  C
  C1190    1.0000 0.35440  0.07680  0.18575  Biso   1.000  C
  H636     1.0000 0.37900  0.07810  0.18130  Biso   1.000  H
  C1191    1.0000 0.35580  0.09800  0.20137  Biso   1.000  C
  H637     1.0000 0.38130  0.11380  0.20760  Biso   1.000  H
  C1192    1.0000 0.45980  0.08700  0.09798  Biso   1.000  C
  C1193    1.0000 0.42980  0.04540  0.09552  Biso   1.000  C
  H638     1.0000 0.43370  0.02930  0.08660  Biso   1.000  H
  C1194    1.0000 0.39420  0.02750  0.10606  Biso   1.000  C
  H639     1.0000 0.37370  0.99910  0.10440  Biso   1.000  H
  C1195    1.0000 0.38840  0.05090  0.11908  Biso   1.000  C
  C1196    1.0000 0.41840  0.09250  0.12154  Biso   1.000  C
  H640     1.0000 0.41450  0.10850  0.13040  Biso   1.000  H
  C1197    1.0000 0.45400  0.11040  0.11100  Biso   1.000  C
  H641     1.0000 0.47450  0.13880  0.11270  Biso   1.000  H
  C1198    1.0000 0.49910  0.09830  0.08750  Biso   1.000  C
  C1199    1.0000 0.33360  0.83010  0.96280  Biso   1.000  C
  C1200    1.0000 0.30030  0.79110  0.95860  Biso   1.000  C
  H642     1.0000 0.30220  0.77610  0.94870  Biso   1.000  H
  C1201    1.0000 0.26430  0.77420  0.96890  Biso   1.000  C
  C1202    1.0000 0.26160  0.79630  0.98343  Biso   1.000  C
  C1203    1.0000 0.29490  0.83530  0.98763  Biso   1.000  C
  H643     1.0000 0.29300  0.85030  0.99750  Biso   1.000  H
  C1204    1.0000 0.33090  0.85220  0.97731  Biso   1.000  C
  H644     1.0000 0.35360  0.87880  0.98020  Biso   1.000  H
  C1205    1.0000 0.37340  0.84580  0.95200  Biso   1.000  C
  C1206    1.0000 0.25040  0.78950  0.04730  Biso   1.000  C
  C1207    1.0000 0.25950  0.78050  0.03040  Biso   1.000  C
  H645     1.0000 0.27010  0.79710  0.05670  Biso   1.000  H
  H646     1.0000 0.28540  0.78200  0.02820  Biso   1.000  H
  O103     1.0000 0.11944  0.52312  0.95613  Biso   1.000  O
  O104     1.0000 0.07557  0.50108  0.92476  Biso   1.000  O
  C1208    1.0000 0.15610  0.53270  0.95320  Biso   1.000  C
  O105     1.0000 0.17887  0.55255  0.93989  Biso   1.000  O
  C1209    1.0000 0.18070  0.52160  0.96599  Biso   1.000  C
  C1210    1.0000 0.21950  0.52570  0.96282  Biso   1.000  C
  C1211    1.0000 0.15850  0.50120  0.98130  Biso   1.000  C
  O106     1.0000 0.13407  0.53026  0.90829  Biso   1.000  O
  H647     1.0000 0.23460  0.53960  0.95230  Biso   1.000  H
  C1212    1.0000 0.23600  0.50950  0.97500  Biso   1.000  C
  C1213    1.0000 0.17500  0.48500  0.99349  Biso   1.000  C
  H648     1.0000 0.13200  0.49840  0.98350  Biso   1.000  H
  C1214    1.0000 0.21390  0.48920  0.99032  Biso   1.000  C
  H649     1.0000 0.15990  0.47110  0.00400  Biso   1.000  H
  C1215    1.0000 0.23290  0.42560  0.01970  Biso   1.000  C
  H650     1.0000 0.24050  0.41350  0.01030  Biso   1.000  H
  C1216    1.0000 0.22390  0.40750  0.03670  Biso   1.000  C
  H651     1.0000 0.22540  0.38310  0.03880  Biso   1.000  H
  C1217    1.0000 0.15170  0.36620  0.10870  Biso   1.000  C
  H652     1.0000 0.13280  0.37190  0.10250  Biso   1.000  H
  C1218    1.0000 0.14230  0.34990  0.12650  Biso   1.000  C
  C1219    1.0000 0.10840  0.34720  0.13530  Biso   1.000  C
  C1220    1.0000 0.07820  0.34460  0.14110  Biso   1.000  C
  C1221    1.0000 0.03760  0.33640  0.14635  Biso   1.000  C
  C1222    1.0000 0.01770  0.31760  0.16230  Biso   1.000  C
  C1223    1.0000 0.01950  0.35160  0.13451  Biso   1.000  C
  C1224    1.0000 0.97950  0.31390  0.16641  Biso   1.000  C
  H653     1.0000 0.03020  0.30730  0.17040  Biso   1.000  H
  H654     1.0000 0.03320  0.36450  0.12360  Biso   1.000  H
  C1225    1.0000 0.98130  0.34790  0.13862  Biso   1.000  C
  C1226    1.0000 0.95870  0.28910  0.18248  Biso   1.000  C
  C1227    1.0000 0.96120  0.32900  0.15457  Biso   1.000  C
  C1228    1.0000 0.96090  0.36560  0.12580  Biso   1.000  C
  C1229    1.0000 0.96460  0.25700  0.18853  Biso   1.000  C
  C1230    1.0000 0.93160  0.29840  0.19152  Biso   1.000  C
  H655     1.0000 0.93510  0.32650  0.15740  Biso   1.000  H
  C1231    1.0000 0.98540  0.39370  0.11259  Biso   1.000  C
  C1232    1.0000 0.91920  0.35390  0.12734  Biso   1.000  C
  C1233    1.0000 0.94340  0.23420  0.20362  Biso   1.000  C
  H656     1.0000 0.98310  0.25060  0.18230  Biso   1.000  H
  H657     1.0000 0.92760  0.32030  0.18740  Biso   1.000  H
  C1234    1.0000 0.91040  0.27560  0.20662  Biso   1.000  C
  C1235    1.0000 0.96800  0.41010  0.10092  Biso   1.000  C
  H658     1.0000 0.01390  0.40170  0.11150  Biso   1.000  H
  H659     1.0000 0.90250  0.33470  0.13640  Biso   1.000  H
  C1236    1.0000 0.90180  0.37030  0.11567  Biso   1.000  C
  C1237    1.0000 0.91630  0.24350  0.21266  Biso   1.000  C
  H660     1.0000 0.94750  0.21230  0.20780  Biso   1.000  H
  H661     1.0000 0.89200  0.28200  0.21280  Biso   1.000  H
  C1238    1.0000 0.92630  0.39840  0.10246  Biso   1.000  C
  H662     1.0000 0.98470  0.42930  0.09190  Biso   1.000  H
  H663     1.0000 0.87330  0.36230  0.11670  Biso   1.000  H
  C1239    1.0000 0.88970  0.21170  0.22700  Biso   1.000  C
  C1240    1.0000 0.90330  0.40800  0.08860  Biso   1.000  C
  O107     1.0000 0.89330  0.18062  0.23152  Biso   1.000  O
  O108     1.0000 0.85866  0.21624  0.23128  Biso   1.000  O
  C1241    1.0000 0.96700  0.28440  0.15952  Biso   1.000  C
  C1242    1.0000 0.00220  0.28360  0.15373  Biso   1.000  C
  H664     1.0000 0.01370  0.27080  0.16090  Biso   1.000  H
  C1243    1.0000 0.02040  0.30150  0.13739  Biso   1.000  C
  C1244    1.0000 0.00360  0.32030  0.12684  Biso   1.000  C
  H665     1.0000 0.01610  0.33250  0.11570  Biso   1.000  H
  C1245    1.0000 0.96840  0.32110  0.13262  Biso   1.000  C
  C1246    1.0000 0.95020  0.30320  0.14896  Biso   1.000  C
  H666     1.0000 0.92610  0.30370  0.15290  Biso   1.000  H
  C1247    1.0000 0.05930  0.30430  0.13120  Biso   1.000  C
  C1248    1.0000 0.08550  0.30030  0.12370  Biso   1.000  C
  C1249    1.0000 0.12250  0.30550  0.11540  Biso   1.000  C
  C1250    1.0000 0.12680  0.32110  0.09780  Biso   1.000  C
  H667     1.0000 0.10670  0.32600  0.09220  Biso   1.000  H
  C1251    1.0000 0.21290  0.39080  0.01080  Biso   1.000  C
  H668     1.0000 0.22040  0.37960  0.00090  Biso   1.000  H
  C1252    1.0000 0.20090  0.36940  0.02700  Biso   1.000  C
  H669     1.0000 0.19890  0.34290  0.02790  Biso   1.000  H
  C1253    1.0000 0.19190  0.38560  0.04130  Biso   1.000  C
  C1254    1.0000 0.19050  0.42330  0.03950  Biso   1.000  C
  H670     1.0000 0.18140  0.43340  0.04920  Biso   1.000  H
  C1255    1.0000 0.20260  0.44470  0.02330  Biso   1.000  C
  H671     1.0000 0.20300  0.47040  0.02200  Biso   1.000  H
  C1256    1.0000 0.88030  0.20200  0.22480  Biso   1.000  C
  C1257    1.0000 0.90390  0.22370  0.20785  Biso   1.000  C
  C1258    1.0000 0.92690  0.20930  0.19872  Biso   1.000  C
  H672     1.0000 0.92820  0.18600  0.20310  Biso   1.000  H
  C1259    1.0000 0.94800  0.22910  0.18310  Biso   1.000  C
  H673     1.0000 0.96380  0.21930  0.17690  Biso   1.000  H
  C1260    1.0000 0.94610  0.26320  0.17662  Biso   1.000  C
  C1261    1.0000 0.92320  0.27760  0.18575  Biso   1.000  C
  H674     1.0000 0.92190  0.30090  0.18130  Biso   1.000  H
  C1262    1.0000 0.90200  0.25780  0.20137  Biso   1.000  C
  H675     1.0000 0.88620  0.26750  0.20760  Biso   1.000  H
  C1263    1.0000 0.91300  0.37280  0.09798  Biso   1.000  C
  C1264    1.0000 0.95460  0.38440  0.09552  Biso   1.000  C
  H676     1.0000 0.97070  0.40440  0.08660  Biso   1.000  H
  C1265    1.0000 0.97250  0.36670  0.10606  Biso   1.000  C
  H677     1.0000 0.00090  0.37460  0.10440  Biso   1.000  H
  C1266    1.0000 0.94910  0.33750  0.11908  Biso   1.000  C
  C1267    1.0000 0.90750  0.32590  0.12154  Biso   1.000  C
  H678     1.0000 0.89150  0.30600  0.13040  Biso   1.000  H
  C1268    1.0000 0.88960  0.34360  0.11100  Biso   1.000  C
  H679     1.0000 0.86120  0.33570  0.11270  Biso   1.000  H
  C1269    1.0000 0.90170  0.40080  0.08750  Biso   1.000  C
  C1270    1.0000 0.16990  0.50350  0.96280  Biso   1.000  C
  C1271    1.0000 0.20890  0.50920  0.95860  Biso   1.000  C
  H680     1.0000 0.22390  0.52610  0.94870  Biso   1.000  H
  C1272    1.0000 0.22580  0.49010  0.96890  Biso   1.000  C
  C1273    1.0000 0.20370  0.46530  0.98343  Biso   1.000  C
  C1274    1.0000 0.16470  0.45960  0.98763  Biso   1.000  C
  H681     1.0000 0.14970  0.44270  0.99750  Biso   1.000  H
  C1275    1.0000 0.14780  0.47870  0.97731  Biso   1.000  C
  H682     1.0000 0.12120  0.47480  0.98020  Biso   1.000  H
  C1276    1.0000 0.15420  0.52760  0.95200  Biso   1.000  C
  C1277    1.0000 0.21050  0.46090  0.04730  Biso   1.000  C
  C1278    1.0000 0.21950  0.47900  0.03040  Biso   1.000  C
  H683     1.0000 0.20290  0.47300  0.05670  Biso   1.000  H
  H684     1.0000 0.21800  0.50340  0.02820  Biso   1.000  H
  O109     1.0000 0.40368  0.52312  0.54387  Biso   1.000  O
  O110     1.0000 0.42551  0.50108  0.57524  Biso   1.000  O
  C1279    1.0000 0.37660  0.53270  0.54680  Biso   1.000  C
  O111     1.0000 0.37368  0.55255  0.56011  Biso   1.000  O
  C1280    1.0000 0.34090  0.52160  0.53401  Biso   1.000  C
  C1281    1.0000 0.30620  0.52570  0.53718  Biso   1.000  C
  C1282    1.0000 0.34270  0.50120  0.51870  Biso   1.000  C
  O112     1.0000 0.39619  0.53026  0.59171  Biso   1.000  O
  H685     1.0000 0.30500  0.53960  0.54770  Biso   1.000  H
  C1283    1.0000 0.27350  0.50950  0.52500  Biso   1.000  C
  C1284    1.0000 0.31000  0.48500  0.50651  Biso   1.000  C
  H686     1.0000 0.36640  0.49840  0.51650  Biso   1.000  H
  C1285    1.0000 0.27530  0.48920  0.50968  Biso   1.000  C
  H687     1.0000 0.31120  0.47110  0.49600  Biso   1.000  H
  C1286    1.0000 0.19270  0.42560  0.48030  Biso   1.000  C
  H688     1.0000 0.17300  0.41350  0.48970  Biso   1.000  H
  C1287    1.0000 0.18360  0.40750  0.46330  Biso   1.000  C
  H689     1.0000 0.15770  0.38310  0.46120  Biso   1.000  H
  C1288    1.0000 0.21450  0.36620  0.39130  Biso   1.000  C
  H690     1.0000 0.23910  0.37190  0.39750  Biso   1.000  H
  C1289    1.0000 0.20760  0.34990  0.37350  Biso   1.000  C
  C1290    1.0000 0.23880  0.34720  0.36470  Biso   1.000  C
  C1291    1.0000 0.26640  0.34460  0.35890  Biso   1.000  C
  C1292    1.0000 0.29880  0.33640  0.35365  Biso   1.000  C
  C1293    1.0000 0.29990  0.31760  0.33770  Biso   1.000  C
  C1294    1.0000 0.33210  0.35160  0.36549  Biso   1.000  C
  C1295    1.0000 0.33440  0.31390  0.33359  Biso   1.000  C
  H691     1.0000 0.27710  0.30730  0.32960  Biso   1.000  H
  H692     1.0000 0.33130  0.36450  0.37640  Biso   1.000  H
  C1296    1.0000 0.36660  0.34790  0.36138  Biso   1.000  C
  C1297    1.0000 0.33040  0.28910  0.31752  Biso   1.000  C
  C1298    1.0000 0.36780  0.32900  0.34543  Biso   1.000  C
  C1299    1.0000 0.40470  0.36560  0.37420  Biso   1.000  C
  C1300    1.0000 0.29240  0.25700  0.31147  Biso   1.000  C
  C1301    1.0000 0.36680  0.29840  0.30848  Biso   1.000  C
  H693     1.0000 0.39140  0.32650  0.34260  Biso   1.000  H
  C1302    1.0000 0.40830  0.39370  0.38741  Biso   1.000  C
  C1303    1.0000 0.43470  0.35390  0.37266  Biso   1.000  C
  C1304    1.0000 0.29080  0.23420  0.29638  Biso   1.000  C
  H694     1.0000 0.26750  0.25060  0.31770  Biso   1.000  H
  H695     1.0000 0.39270  0.32030  0.31260  Biso   1.000  H
  C1305    1.0000 0.36520  0.27560  0.29338  Biso   1.000  C
  C1306    1.0000 0.44210  0.41010  0.39908  Biso   1.000  C
  H696     1.0000 0.38780  0.40170  0.38850  Biso   1.000  H
  H697     1.0000 0.43220  0.33470  0.36360  Biso   1.000  H
  C1307    1.0000 0.46850  0.37030  0.38433  Biso   1.000  C
  C1308    1.0000 0.32720  0.24350  0.28734  Biso   1.000  C
  H698     1.0000 0.26480  0.21230  0.29220  Biso   1.000  H
  H699     1.0000 0.39000  0.28200  0.28720  Biso   1.000  H
  C1309    1.0000 0.47210  0.39840  0.39754  Biso   1.000  C
  H700     1.0000 0.44460  0.42930  0.40810  Biso   1.000  H
  H701     1.0000 0.48900  0.36230  0.38330  Biso   1.000  H
  C1310    1.0000 0.32200  0.21170  0.27300  Biso   1.000  C
  C1311    1.0000 0.50470  0.40800  0.41140  Biso   1.000  C
  O113     1.0000 0.28732  0.18062  0.26848  Biso   1.000  O
  O114     1.0000 0.35758  0.21624  0.26872  Biso   1.000  O
  C1312    1.0000 0.31740  0.28440  0.34048  Biso   1.000  C
  C1313    1.0000 0.28140  0.28360  0.34627  Biso   1.000  C
  H702     1.0000 0.25710  0.27080  0.33910  Biso   1.000  H
  C1314    1.0000 0.28110  0.30150  0.36261  Biso   1.000  C
  C1315    1.0000 0.31670  0.32030  0.37316  Biso   1.000  C
  H703     1.0000 0.31640  0.33250  0.38430  Biso   1.000  H
  C1316    1.0000 0.35270  0.32110  0.36738  Biso   1.000  C
  C1317    1.0000 0.35300  0.30320  0.35104  Biso   1.000  C
  H704     1.0000 0.37760  0.30370  0.34710  Biso   1.000  H
  C1318    1.0000 0.24500  0.30430  0.36880  Biso   1.000  C
  C1319    1.0000 0.21480  0.30030  0.37630  Biso   1.000  C
  C1320    1.0000 0.18300  0.30550  0.38460  Biso   1.000  C
  C1321    1.0000 0.19430  0.32110  0.40220  Biso   1.000  C
  H705     1.0000 0.21930  0.32600  0.40780  Biso   1.000  H
  C1322    1.0000 0.17790  0.39080  0.48920  Biso   1.000  C
  H706     1.0000 0.15920  0.37960  0.49910  Biso   1.000  H
  C1323    1.0000 0.16850  0.36940  0.47300  Biso   1.000  C
  H707     1.0000 0.14400  0.34290  0.47210  Biso   1.000  H
  C1324    1.0000 0.19370  0.38560  0.45870  Biso   1.000  C
  C1325    1.0000 0.23280  0.42330  0.46050  Biso   1.000  C
  H708     1.0000 0.25200  0.43340  0.45080  Biso   1.000  H
  C1326    1.0000 0.24210  0.44470  0.47670  Biso   1.000  C
  H709     1.0000 0.26740  0.47040  0.47800  Biso   1.000  H
  C1327    1.0000 0.32170  0.20200  0.27520  Biso   1.000  C
  C1328    1.0000 0.31980  0.22370  0.29215  Biso   1.000  C
  C1329    1.0000 0.28240  0.20930  0.30128  Biso   1.000  C
  H710     1.0000 0.25780  0.18600  0.29690  Biso   1.000  H
  C1330    1.0000 0.28110  0.22910  0.31690  Biso   1.000  C
  H711     1.0000 0.25550  0.21930  0.32310  Biso   1.000  H
  C1331    1.0000 0.31710  0.26320  0.32338  Biso   1.000  C
  C1332    1.0000 0.35440  0.27760  0.31425  Biso   1.000  C
  H712     1.0000 0.37900  0.30090  0.31870  Biso   1.000  H
  C1333    1.0000 0.35580  0.25780  0.29863  Biso   1.000  C
  H713     1.0000 0.38130  0.26750  0.29240  Biso   1.000  H
  C1334    1.0000 0.45980  0.37280  0.40202  Biso   1.000  C
  C1335    1.0000 0.42980  0.38440  0.40448  Biso   1.000  C
  H714     1.0000 0.43370  0.40440  0.41340  Biso   1.000  H
  C1336    1.0000 0.39420  0.36670  0.39394  Biso   1.000  C
  H715     1.0000 0.37370  0.37460  0.39560  Biso   1.000  H
  C1337    1.0000 0.38840  0.33750  0.38092  Biso   1.000  C
  C1338    1.0000 0.41840  0.32590  0.37846  Biso   1.000  C
  H716     1.0000 0.41450  0.30600  0.36960  Biso   1.000  H
  C1339    1.0000 0.45400  0.34360  0.38900  Biso   1.000  C
  H717     1.0000 0.47450  0.33570  0.38730  Biso   1.000  H
  C1340    1.0000 0.49910  0.40080  0.41250  Biso   1.000  C
  C1341    1.0000 0.33360  0.50350  0.53720  Biso   1.000  C
  C1342    1.0000 0.30030  0.50920  0.54140  Biso   1.000  C
  H718     1.0000 0.30220  0.52610  0.55130  Biso   1.000  H
  C1343    1.0000 0.26430  0.49010  0.53110  Biso   1.000  C
  C1344    1.0000 0.26160  0.46530  0.51657  Biso   1.000  C
  C1345    1.0000 0.29490  0.45960  0.51237  Biso   1.000  C
  H719     1.0000 0.29300  0.44270  0.50250  Biso   1.000  H
  C1346    1.0000 0.33090  0.47870  0.52269  Biso   1.000  C
  H720     1.0000 0.35360  0.47480  0.51980  Biso   1.000  H
  C1347    1.0000 0.37340  0.52760  0.54800  Biso   1.000  C
  C1348    1.0000 0.25040  0.46090  0.45270  Biso   1.000  C
  C1349    1.0000 0.25950  0.47900  0.46960  Biso   1.000  C
  H721     1.0000 0.27010  0.47300  0.44330  Biso   1.000  H
  H722     1.0000 0.28540  0.50340  0.47180  Biso   1.000  H
  O115     1.0000 0.11944  0.59632  0.54387  Biso   1.000  O
  O116     1.0000 0.07557  0.57449  0.57524  Biso   1.000  O
  C1350    1.0000 0.15610  0.62340  0.54680  Biso   1.000  C
  O117     1.0000 0.17887  0.62632  0.56011  Biso   1.000  O
  C1351    1.0000 0.18070  0.65910  0.53401  Biso   1.000  C
  C1352    1.0000 0.21950  0.69380  0.53718  Biso   1.000  C
  C1353    1.0000 0.15850  0.65730  0.51870  Biso   1.000  C
  O118     1.0000 0.13407  0.60381  0.59171  Biso   1.000  O
  H723     1.0000 0.23460  0.69500  0.54770  Biso   1.000  H
  C1354    1.0000 0.23600  0.72650  0.52500  Biso   1.000  C
  C1355    1.0000 0.17500  0.69000  0.50651  Biso   1.000  C
  H724     1.0000 0.13200  0.63360  0.51650  Biso   1.000  H
  C1356    1.0000 0.21390  0.72470  0.50968  Biso   1.000  C
  H725     1.0000 0.15990  0.68880  0.49600  Biso   1.000  H
  C1357    1.0000 0.23290  0.80730  0.48030  Biso   1.000  C
  H726     1.0000 0.24050  0.82700  0.48970  Biso   1.000  H
  C1358    1.0000 0.22390  0.81640  0.46330  Biso   1.000  C
  H727     1.0000 0.22540  0.84230  0.46120  Biso   1.000  H
  C1359    1.0000 0.15170  0.78550  0.39130  Biso   1.000  C
  H728     1.0000 0.13280  0.76090  0.39750  Biso   1.000  H
  C1360    1.0000 0.14230  0.79240  0.37350  Biso   1.000  C
  C1361    1.0000 0.10840  0.76120  0.36470  Biso   1.000  C
  C1362    1.0000 0.07820  0.73360  0.35890  Biso   1.000  C
  C1363    1.0000 0.03760  0.70120  0.35365  Biso   1.000  C
  C1364    1.0000 0.01770  0.70010  0.33770  Biso   1.000  C
  C1365    1.0000 0.01950  0.66790  0.36549  Biso   1.000  C
  C1366    1.0000 0.97950  0.66560  0.33359  Biso   1.000  C
  H729     1.0000 0.03020  0.72290  0.32960  Biso   1.000  H
  H730     1.0000 0.03320  0.66870  0.37640  Biso   1.000  H
  C1367    1.0000 0.98130  0.63340  0.36138  Biso   1.000  C
  C1368    1.0000 0.95870  0.66960  0.31752  Biso   1.000  C
  C1369    1.0000 0.96120  0.63220  0.34543  Biso   1.000  C
  C1370    1.0000 0.96090  0.59530  0.37420  Biso   1.000  C
  C1371    1.0000 0.96460  0.70760  0.31147  Biso   1.000  C
  C1372    1.0000 0.93160  0.63320  0.30848  Biso   1.000  C
  H731     1.0000 0.93510  0.60860  0.34260  Biso   1.000  H
  C1373    1.0000 0.98540  0.59170  0.38741  Biso   1.000  C
  C1374    1.0000 0.91920  0.56530  0.37266  Biso   1.000  C
  C1375    1.0000 0.94340  0.70920  0.29638  Biso   1.000  C
  H732     1.0000 0.98310  0.73250  0.31770  Biso   1.000  H
  H733     1.0000 0.92760  0.60730  0.31260  Biso   1.000  H
  C1376    1.0000 0.91040  0.63480  0.29338  Biso   1.000  C
  C1377    1.0000 0.96800  0.55790  0.39908  Biso   1.000  C
  H734     1.0000 0.01390  0.61220  0.38850  Biso   1.000  H
  H735     1.0000 0.90250  0.56780  0.36360  Biso   1.000  H
  C1378    1.0000 0.90180  0.53150  0.38433  Biso   1.000  C
  C1379    1.0000 0.91630  0.67280  0.28734  Biso   1.000  C
  H736     1.0000 0.94750  0.73520  0.29220  Biso   1.000  H
  H737     1.0000 0.89200  0.61000  0.28720  Biso   1.000  H
  C1380    1.0000 0.92630  0.52790  0.39754  Biso   1.000  C
  H738     1.0000 0.98470  0.55540  0.40810  Biso   1.000  H
  H739     1.0000 0.87330  0.51100  0.38330  Biso   1.000  H
  C1381    1.0000 0.88970  0.67800  0.27300  Biso   1.000  C
  C1382    1.0000 0.90330  0.49530  0.41140  Biso   1.000  C
  O119     1.0000 0.89330  0.71268  0.26848  Biso   1.000  O
  O120     1.0000 0.85866  0.64242  0.26872  Biso   1.000  O
  C1383    1.0000 0.96700  0.68260  0.34048  Biso   1.000  C
  C1384    1.0000 0.00220  0.71860  0.34627  Biso   1.000  C
  H740     1.0000 0.01370  0.74290  0.33910  Biso   1.000  H
  C1385    1.0000 0.02040  0.71890  0.36261  Biso   1.000  C
  C1386    1.0000 0.00360  0.68330  0.37316  Biso   1.000  C
  H741     1.0000 0.01610  0.68360  0.38430  Biso   1.000  H
  C1387    1.0000 0.96840  0.64730  0.36738  Biso   1.000  C
  C1388    1.0000 0.95020  0.64700  0.35104  Biso   1.000  C
  H742     1.0000 0.92610  0.62240  0.34710  Biso   1.000  H
  C1389    1.0000 0.05930  0.75500  0.36880  Biso   1.000  C
  C1390    1.0000 0.08550  0.78520  0.37630  Biso   1.000  C
  C1391    1.0000 0.12250  0.81700  0.38460  Biso   1.000  C
  C1392    1.0000 0.12680  0.80570  0.40220  Biso   1.000  C
  H743     1.0000 0.10670  0.78070  0.40780  Biso   1.000  H
  C1393    1.0000 0.21290  0.82210  0.48920  Biso   1.000  C
  H744     1.0000 0.22040  0.84080  0.49910  Biso   1.000  H
  C1394    1.0000 0.20090  0.83150  0.47300  Biso   1.000  C
  H745     1.0000 0.19890  0.85600  0.47210  Biso   1.000  H
  C1395    1.0000 0.19190  0.80630  0.45870  Biso   1.000  C
  C1396    1.0000 0.19050  0.76720  0.46050  Biso   1.000  C
  H746     1.0000 0.18140  0.74800  0.45080  Biso   1.000  H
  C1397    1.0000 0.20260  0.75790  0.47670  Biso   1.000  C
  H747     1.0000 0.20300  0.73260  0.47800  Biso   1.000  H
  C1398    1.0000 0.88030  0.67830  0.27520  Biso   1.000  C
  C1399    1.0000 0.90390  0.68020  0.29215  Biso   1.000  C
  C1400    1.0000 0.92690  0.71760  0.30128  Biso   1.000  C
  H748     1.0000 0.92820  0.74220  0.29690  Biso   1.000  H
  C1401    1.0000 0.94800  0.71890  0.31690  Biso   1.000  C
  H749     1.0000 0.96380  0.74450  0.32310  Biso   1.000  H
  C1402    1.0000 0.94610  0.68290  0.32338  Biso   1.000  C
  C1403    1.0000 0.92320  0.64560  0.31425  Biso   1.000  C
  H750     1.0000 0.92190  0.62100  0.31870  Biso   1.000  H
  C1404    1.0000 0.90200  0.64420  0.29863  Biso   1.000  C
  H751     1.0000 0.88620  0.61870  0.29240  Biso   1.000  H
  C1405    1.0000 0.91300  0.54020  0.40202  Biso   1.000  C
  C1406    1.0000 0.95460  0.57020  0.40448  Biso   1.000  C
  H752     1.0000 0.97070  0.56630  0.41340  Biso   1.000  H
  C1407    1.0000 0.97250  0.60580  0.39394  Biso   1.000  C
  H753     1.0000 0.00090  0.62630  0.39560  Biso   1.000  H
  C1408    1.0000 0.94910  0.61160  0.38092  Biso   1.000  C
  C1409    1.0000 0.90750  0.58160  0.37846  Biso   1.000  C
  H754     1.0000 0.89150  0.58550  0.36960  Biso   1.000  H
  C1410    1.0000 0.88960  0.54600  0.38900  Biso   1.000  C
  H755     1.0000 0.86120  0.52550  0.38730  Biso   1.000  H
  C1411    1.0000 0.90170  0.50090  0.41250  Biso   1.000  C
  C1412    1.0000 0.16990  0.66640  0.53720  Biso   1.000  C
  C1413    1.0000 0.20890  0.69970  0.54140  Biso   1.000  C
  H756     1.0000 0.22390  0.69780  0.55130  Biso   1.000  H
  C1414    1.0000 0.22580  0.73570  0.53110  Biso   1.000  C
  C1415    1.0000 0.20370  0.73840  0.51657  Biso   1.000  C
  C1416    1.0000 0.16470  0.70510  0.51237  Biso   1.000  C
  H757     1.0000 0.14970  0.70700  0.50250  Biso   1.000  H
  C1417    1.0000 0.14780  0.66910  0.52269  Biso   1.000  C
  H758     1.0000 0.12120  0.64640  0.51980  Biso   1.000  H
  C1418    1.0000 0.15420  0.62660  0.54800  Biso   1.000  C
  C1419    1.0000 0.21050  0.74960  0.45270  Biso   1.000  C
  C1420    1.0000 0.21950  0.74050  0.46960  Biso   1.000  C
  H759     1.0000 0.20290  0.72990  0.44330  Biso   1.000  H
  H760     1.0000 0.21800  0.71460  0.47180  Biso   1.000  H
  O121     1.0000 0.47688  0.88056  0.54387  Biso   1.000  O
  O122     1.0000 0.49892  0.92443  0.57524  Biso   1.000  O
  C1421    1.0000 0.46730  0.84390  0.54680  Biso   1.000  C
  O123     1.0000 0.44745  0.82113  0.56011  Biso   1.000  O
  C1422    1.0000 0.47840  0.81930  0.53401  Biso   1.000  C
  C1423    1.0000 0.47430  0.78050  0.53718  Biso   1.000  C
  C1424    1.0000 0.49880  0.84150  0.51870  Biso   1.000  C
  O124     1.0000 0.46974  0.86593  0.59171  Biso   1.000  O
  H761     1.0000 0.46040  0.76540  0.54770  Biso   1.000  H
  C1425    1.0000 0.49050  0.76400  0.52500  Biso   1.000  C
  C1426    1.0000 0.51500  0.82500  0.50651  Biso   1.000  C
  H762     1.0000 0.50160  0.86800  0.51650  Biso   1.000  H
  C1427    1.0000 0.51080  0.78610  0.50968  Biso   1.000  C
  H763     1.0000 0.52890  0.84010  0.49600  Biso   1.000  H
  C1428    1.0000 0.57440  0.76710  0.48030  Biso   1.000  C
  H764     1.0000 0.58650  0.75950  0.48970  Biso   1.000  H
  C1429    1.0000 0.59250  0.77610  0.46330  Biso   1.000  C
  H765     1.0000 0.61690  0.77460  0.46120  Biso   1.000  H
  C1430    1.0000 0.63380  0.84830  0.39130  Biso   1.000  C
  H766     1.0000 0.62810  0.86720  0.39750  Biso   1.000  H
  C1431    1.0000 0.65010  0.85770  0.37350  Biso   1.000  C
  C1432    1.0000 0.65280  0.89160  0.36470  Biso   1.000  C
  C1433    1.0000 0.65540  0.92180  0.35890  Biso   1.000  C
  C1434    1.0000 0.66360  0.96240  0.35365  Biso   1.000  C
  C1435    1.0000 0.68240  0.98230  0.33770  Biso   1.000  C
  C1436    1.0000 0.64840  0.98050  0.36549  Biso   1.000  C
  C1437    1.0000 0.68610  0.02050  0.33359  Biso   1.000  C
  H767     1.0000 0.69270  0.96980  0.32960  Biso   1.000  H
  H768     1.0000 0.63550  0.96680  0.37640  Biso   1.000  H
  C1438    1.0000 0.65210  0.01870  0.36138  Biso   1.000  C
  C1439    1.0000 0.71090  0.04130  0.31752  Biso   1.000  C
  C1440    1.0000 0.67100  0.03880  0.34543  Biso   1.000  C
  C1441    1.0000 0.63440  0.03910  0.37420  Biso   1.000  C
  C1442    1.0000 0.74300  0.03540  0.31147  Biso   1.000  C
  C1443    1.0000 0.70160  0.06840  0.30848  Biso   1.000  C
  H769     1.0000 0.67350  0.06490  0.34260  Biso   1.000  H
  C1444    1.0000 0.60630  0.01460  0.38741  Biso   1.000  C
  C1445    1.0000 0.64610  0.08080  0.37266  Biso   1.000  C
  C1446    1.0000 0.76580  0.05660  0.29638  Biso   1.000  C
  H770     1.0000 0.74940  0.01690  0.31770  Biso   1.000  H
  H771     1.0000 0.67970  0.07240  0.31260  Biso   1.000  H
  C1447    1.0000 0.72440  0.08960  0.29338  Biso   1.000  C
  C1448    1.0000 0.58990  0.03200  0.39908  Biso   1.000  C
  H772     1.0000 0.59830  0.98610  0.38850  Biso   1.000  H
  H773     1.0000 0.66530  0.09750  0.36360  Biso   1.000  H
  C1449    1.0000 0.62970  0.09820  0.38433  Biso   1.000  C
  C1450    1.0000 0.75650  0.08370  0.28734  Biso   1.000  C
  H774     1.0000 0.78770  0.05250  0.29220  Biso   1.000  H
  H775     1.0000 0.71800  0.10800  0.28720  Biso   1.000  H
  C1451    1.0000 0.60160  0.07370  0.39754  Biso   1.000  C
  H776     1.0000 0.57070  0.01530  0.40810  Biso   1.000  H
  H777     1.0000 0.63770  0.12670  0.38330  Biso   1.000  H
  C1452    1.0000 0.78830  0.11030  0.27300  Biso   1.000  C
  C1453    1.0000 0.59200  0.09670  0.41140  Biso   1.000  C
  O125     1.0000 0.81938  0.10670  0.26848  Biso   1.000  O
  O126     1.0000 0.78376  0.14134  0.26872  Biso   1.000  O
  C1454    1.0000 0.71560  0.03300  0.34048  Biso   1.000  C
  C1455    1.0000 0.71640  0.99780  0.34627  Biso   1.000  C
  H778     1.0000 0.72920  0.98630  0.33910  Biso   1.000  H
  C1456    1.0000 0.69850  0.97960  0.36261  Biso   1.000  C
  C1457    1.0000 0.67970  0.99640  0.37316  Biso   1.000  C
  H779     1.0000 0.66750  0.98390  0.38430  Biso   1.000  H
  C1458    1.0000 0.67890  0.03160  0.36738  Biso   1.000  C
  C1459    1.0000 0.69680  0.04980  0.35104  Biso   1.000  C
  H780     1.0000 0.69630  0.07390  0.34710  Biso   1.000  H
  C1460    1.0000 0.69570  0.94070  0.36880  Biso   1.000  C
  C1461    1.0000 0.69970  0.91450  0.37630  Biso   1.000  C
  C1462    1.0000 0.69450  0.87750  0.38460  Biso   1.000  C
  C1463    1.0000 0.67890  0.87320  0.40220  Biso   1.000  C
  H781     1.0000 0.67400  0.89330  0.40780  Biso   1.000  H
  C1464    1.0000 0.60920  0.78710  0.48920  Biso   1.000  C
  H782     1.0000 0.62040  0.77960  0.49910  Biso   1.000  H
  C1465    1.0000 0.63060  0.79910  0.47300  Biso   1.000  C
  H783     1.0000 0.65710  0.80110  0.47210  Biso   1.000  H
  C1466    1.0000 0.61440  0.80810  0.45870  Biso   1.000  C
  C1467    1.0000 0.57670  0.80950  0.46050  Biso   1.000  C
  H784     1.0000 0.56660  0.81860  0.45080  Biso   1.000  H
  C1468    1.0000 0.55530  0.79740  0.47670  Biso   1.000  C
  H785     1.0000 0.52960  0.79700  0.47800  Biso   1.000  H
  C1469    1.0000 0.79800  0.11970  0.27520  Biso   1.000  C
  C1470    1.0000 0.77630  0.09610  0.29215  Biso   1.000  C
  C1471    1.0000 0.79070  0.07310  0.30128  Biso   1.000  C
  H786     1.0000 0.81400  0.07180  0.29690  Biso   1.000  H
  C1472    1.0000 0.77090  0.05200  0.31690  Biso   1.000  C
  H787     1.0000 0.78070  0.03620  0.32310  Biso   1.000  H
  C1473    1.0000 0.73680  0.05390  0.32338  Biso   1.000  C
  C1474    1.0000 0.72240  0.07680  0.31425  Biso   1.000  C
  H788     1.0000 0.69910  0.07810  0.31870  Biso   1.000  H
  C1475    1.0000 0.74220  0.09800  0.29863  Biso   1.000  C
  H789     1.0000 0.73250  0.11380  0.29240  Biso   1.000  H
  C1476    1.0000 0.62720  0.08700  0.40202  Biso   1.000  C
  C1477    1.0000 0.61560  0.04540  0.40448  Biso   1.000  C
  H790     1.0000 0.59560  0.02930  0.41340  Biso   1.000  H
  C1478    1.0000 0.63330  0.02750  0.39394  Biso   1.000  C
  H791     1.0000 0.62540  0.99910  0.39560  Biso   1.000  H
  C1479    1.0000 0.66250  0.05090  0.38092  Biso   1.000  C
  C1480    1.0000 0.67410  0.09250  0.37846  Biso   1.000  C
  H792     1.0000 0.69400  0.10850  0.36960  Biso   1.000  H
  C1481    1.0000 0.65640  0.11040  0.38900  Biso   1.000  C
  H793     1.0000 0.66430  0.13880  0.38730  Biso   1.000  H
  C1482    1.0000 0.59920  0.09830  0.41250  Biso   1.000  C
  C1483    1.0000 0.49650  0.83010  0.53720  Biso   1.000  C
  C1484    1.0000 0.49080  0.79110  0.54140  Biso   1.000  C
  H794     1.0000 0.47390  0.77610  0.55130  Biso   1.000  H
  C1485    1.0000 0.50990  0.77420  0.53110  Biso   1.000  C
  C1486    1.0000 0.53470  0.79630  0.51657  Biso   1.000  C
  C1487    1.0000 0.54040  0.83530  0.51237  Biso   1.000  C
  H795     1.0000 0.55730  0.85030  0.50250  Biso   1.000  H
  C1488    1.0000 0.52130  0.85220  0.52269  Biso   1.000  C
  H796     1.0000 0.52520  0.87880  0.51980  Biso   1.000  H
  C1489    1.0000 0.47240  0.84580  0.54800  Biso   1.000  C
  C1490    1.0000 0.53910  0.78950  0.45270  Biso   1.000  C
  C1491    1.0000 0.52100  0.78050  0.46960  Biso   1.000  C
  H797     1.0000 0.52700  0.79710  0.44330  Biso   1.000  H
  H798     1.0000 0.49660  0.78200  0.47180  Biso   1.000  H
  O127     1.0000 0.59632  0.47688  0.04387  Biso   1.000  O
  O128     1.0000 0.57449  0.49892  0.07524  Biso   1.000  O
  C1492    1.0000 0.62340  0.46730  0.04680  Biso   1.000  C
  O129     1.0000 0.62632  0.44745  0.06011  Biso   1.000  O
  C1493    1.0000 0.65910  0.47840  0.03401  Biso   1.000  C
  C1494    1.0000 0.69380  0.47430  0.03718  Biso   1.000  C
  C1495    1.0000 0.65730  0.49880  0.01870  Biso   1.000  C
  O130     1.0000 0.60381  0.46974  0.09171  Biso   1.000  O
  H799     1.0000 0.69500  0.46040  0.04770  Biso   1.000  H
  C1496    1.0000 0.72650  0.49050  0.02500  Biso   1.000  C
  C1497    1.0000 0.69000  0.51500  0.00651  Biso   1.000  C
  H800     1.0000 0.63360  0.50160  0.01650  Biso   1.000  H
  C1498    1.0000 0.72470  0.51080  0.00968  Biso   1.000  C
  H801     1.0000 0.68880  0.52890  0.99600  Biso   1.000  H
  C1499    1.0000 0.80730  0.57440  0.98030  Biso   1.000  C
  H802     1.0000 0.82700  0.58650  0.98970  Biso   1.000  H
  C1500    1.0000 0.81640  0.59250  0.96330  Biso   1.000  C
  H803     1.0000 0.84230  0.61690  0.96120  Biso   1.000  H
  C1501    1.0000 0.78550  0.63380  0.89130  Biso   1.000  C
  H804     1.0000 0.76090  0.62810  0.89750  Biso   1.000  H
  C1502    1.0000 0.79240  0.65010  0.87350  Biso   1.000  C
  C1503    1.0000 0.76120  0.65280  0.86470  Biso   1.000  C
  C1504    1.0000 0.73360  0.65540  0.85890  Biso   1.000  C
  C1505    1.0000 0.70120  0.66360  0.85365  Biso   1.000  C
  C1506    1.0000 0.70010  0.68240  0.83770  Biso   1.000  C
  C1507    1.0000 0.66790  0.64840  0.86549  Biso   1.000  C
  C1508    1.0000 0.66560  0.68610  0.83359  Biso   1.000  C
  H805     1.0000 0.72290  0.69270  0.82960  Biso   1.000  H
  H806     1.0000 0.66870  0.63550  0.87640  Biso   1.000  H
  C1509    1.0000 0.63340  0.65210  0.86138  Biso   1.000  C
  C1510    1.0000 0.66960  0.71090  0.81752  Biso   1.000  C
  C1511    1.0000 0.63220  0.67100  0.84543  Biso   1.000  C
  C1512    1.0000 0.59530  0.63440  0.87420  Biso   1.000  C
  C1513    1.0000 0.70760  0.74300  0.81147  Biso   1.000  C
  C1514    1.0000 0.63320  0.70160  0.80848  Biso   1.000  C
  H807     1.0000 0.60860  0.67350  0.84260  Biso   1.000  H
  C1515    1.0000 0.59170  0.60630  0.88741  Biso   1.000  C
  C1516    1.0000 0.56530  0.64610  0.87266  Biso   1.000  C
  C1517    1.0000 0.70920  0.76580  0.79638  Biso   1.000  C
  H808     1.0000 0.73250  0.74940  0.81770  Biso   1.000  H
  H809     1.0000 0.60730  0.67970  0.81260  Biso   1.000  H
  C1518    1.0000 0.63480  0.72440  0.79338  Biso   1.000  C
  C1519    1.0000 0.55790  0.58990  0.89908  Biso   1.000  C
  H810     1.0000 0.61220  0.59830  0.88850  Biso   1.000  H
  H811     1.0000 0.56780  0.66530  0.86360  Biso   1.000  H
  C1520    1.0000 0.53150  0.62970  0.88433  Biso   1.000  C
  C1521    1.0000 0.67280  0.75650  0.78734  Biso   1.000  C
  H812     1.0000 0.73520  0.78770  0.79220  Biso   1.000  H
  H813     1.0000 0.61000  0.71800  0.78720  Biso   1.000  H
  C1522    1.0000 0.52790  0.60160  0.89754  Biso   1.000  C
  H814     1.0000 0.55540  0.57070  0.90810  Biso   1.000  H
  H815     1.0000 0.51100  0.63770  0.88330  Biso   1.000  H
  C1523    1.0000 0.67800  0.78830  0.77300  Biso   1.000  C
  C1524    1.0000 0.49530  0.59200  0.91140  Biso   1.000  C
  O131     1.0000 0.71268  0.81938  0.76848  Biso   1.000  O
  O132     1.0000 0.64242  0.78376  0.76872  Biso   1.000  O
  C1525    1.0000 0.68260  0.71560  0.84048  Biso   1.000  C
  C1526    1.0000 0.71860  0.71640  0.84627  Biso   1.000  C
  H816     1.0000 0.74290  0.72920  0.83910  Biso   1.000  H
  C1527    1.0000 0.71890  0.69850  0.86261  Biso   1.000  C
  C1528    1.0000 0.68330  0.67970  0.87316  Biso   1.000  C
  H817     1.0000 0.68360  0.66750  0.88430  Biso   1.000  H
  C1529    1.0000 0.64730  0.67890  0.86738  Biso   1.000  C
  C1530    1.0000 0.64700  0.69680  0.85104  Biso   1.000  C
  H818     1.0000 0.62240  0.69630  0.84710  Biso   1.000  H
  C1531    1.0000 0.75500  0.69570  0.86880  Biso   1.000  C
  C1532    1.0000 0.78520  0.69970  0.87630  Biso   1.000  C
  C1533    1.0000 0.81700  0.69450  0.88460  Biso   1.000  C
  C1534    1.0000 0.80570  0.67890  0.90220  Biso   1.000  C
  H819     1.0000 0.78070  0.67400  0.90780  Biso   1.000  H
  C1535    1.0000 0.82210  0.60920  0.98920  Biso   1.000  C
  H820     1.0000 0.84080  0.62040  0.99910  Biso   1.000  H
  C1536    1.0000 0.83150  0.63060  0.97300  Biso   1.000  C
  H821     1.0000 0.85600  0.65710  0.97210  Biso   1.000  H
  C1537    1.0000 0.80630  0.61440  0.95870  Biso   1.000  C
  C1538    1.0000 0.76720  0.57670  0.96050  Biso   1.000  C
  H822     1.0000 0.74800  0.56660  0.95080  Biso   1.000  H
  C1539    1.0000 0.75790  0.55530  0.97670  Biso   1.000  C
  H823     1.0000 0.73260  0.52960  0.97800  Biso   1.000  H
  C1540    1.0000 0.67830  0.79800  0.77520  Biso   1.000  C
  C1541    1.0000 0.68020  0.77630  0.79215  Biso   1.000  C
  C1542    1.0000 0.71760  0.79070  0.80128  Biso   1.000  C
  H824     1.0000 0.74220  0.81400  0.79690  Biso   1.000  H
  C1543    1.0000 0.71890  0.77090  0.81690  Biso   1.000  C
  H825     1.0000 0.74450  0.78070  0.82310  Biso   1.000  H
  C1544    1.0000 0.68290  0.73680  0.82338  Biso   1.000  C
  C1545    1.0000 0.64560  0.72240  0.81425  Biso   1.000  C
  H826     1.0000 0.62100  0.69910  0.81870  Biso   1.000  H
  C1546    1.0000 0.64420  0.74220  0.79863  Biso   1.000  C
  H827     1.0000 0.61870  0.73250  0.79240  Biso   1.000  H
  C1547    1.0000 0.54020  0.62720  0.90202  Biso   1.000  C
  C1548    1.0000 0.57020  0.61560  0.90448  Biso   1.000  C
  H828     1.0000 0.56630  0.59560  0.91340  Biso   1.000  H
  C1549    1.0000 0.60580  0.63330  0.89394  Biso   1.000  C
  H829     1.0000 0.62630  0.62540  0.89560  Biso   1.000  H
  C1550    1.0000 0.61160  0.66250  0.88092  Biso   1.000  C
  C1551    1.0000 0.58160  0.67410  0.87846  Biso   1.000  C
  H830     1.0000 0.58550  0.69400  0.86960  Biso   1.000  H
  C1552    1.0000 0.54600  0.65640  0.88900  Biso   1.000  C
  H831     1.0000 0.52550  0.66430  0.88730  Biso   1.000  H
  C1553    1.0000 0.50090  0.59920  0.91250  Biso   1.000  C
  C1554    1.0000 0.66640  0.49650  0.03720  Biso   1.000  C
  C1555    1.0000 0.69970  0.49080  0.04140  Biso   1.000  C
  H832     1.0000 0.69780  0.47390  0.05130  Biso   1.000  H
  C1556    1.0000 0.73570  0.50990  0.03110  Biso   1.000  C
  C1557    1.0000 0.73840  0.53470  0.01657  Biso   1.000  C
  C1558    1.0000 0.70510  0.54040  0.01237  Biso   1.000  C
  H833     1.0000 0.70700  0.55730  0.00250  Biso   1.000  H
  C1559    1.0000 0.66910  0.52130  0.02269  Biso   1.000  C
  H834     1.0000 0.64640  0.52520  0.01980  Biso   1.000  H
  C1560    1.0000 0.62660  0.47240  0.04800  Biso   1.000  C
  C1561    1.0000 0.74960  0.53910  0.95270  Biso   1.000  C
  C1562    1.0000 0.74050  0.52100  0.96960  Biso   1.000  C
  H835     1.0000 0.72990  0.52700  0.94330  Biso   1.000  H
  H836     1.0000 0.71460  0.49660  0.97180  Biso   1.000  H
  O133     1.0000 0.88056  0.40368  0.04387  Biso   1.000  O
  O134     1.0000 0.92443  0.42551  0.07524  Biso   1.000  O
  C1563    1.0000 0.84390  0.37660  0.04680  Biso   1.000  C
  O135     1.0000 0.82113  0.37368  0.06011  Biso   1.000  O
  C1564    1.0000 0.81930  0.34090  0.03401  Biso   1.000  C
  C1565    1.0000 0.78050  0.30620  0.03718  Biso   1.000  C
  C1566    1.0000 0.84150  0.34270  0.01870  Biso   1.000  C
  O136     1.0000 0.86593  0.39619  0.09171  Biso   1.000  O
  H837     1.0000 0.76540  0.30500  0.04770  Biso   1.000  H
  C1567    1.0000 0.76400  0.27350  0.02500  Biso   1.000  C
  C1568    1.0000 0.82500  0.31000  0.00651  Biso   1.000  C
  H838     1.0000 0.86800  0.36640  0.01650  Biso   1.000  H
  C1569    1.0000 0.78610  0.27530  0.00968  Biso   1.000  C
  H839     1.0000 0.84010  0.31120  0.99600  Biso   1.000  H
  C1570    1.0000 0.76710  0.19270  0.98030  Biso   1.000  C
  H840     1.0000 0.75950  0.17300  0.98970  Biso   1.000  H
  C1571    1.0000 0.77610  0.18360  0.96330  Biso   1.000  C
  H841     1.0000 0.77460  0.15770  0.96120  Biso   1.000  H
  C1572    1.0000 0.84830  0.21450  0.89130  Biso   1.000  C
  H842     1.0000 0.86720  0.23910  0.89750  Biso   1.000  H
  C1573    1.0000 0.85770  0.20760  0.87350  Biso   1.000  C
  C1574    1.0000 0.89160  0.23880  0.86470  Biso   1.000  C
  C1575    1.0000 0.92180  0.26640  0.85890  Biso   1.000  C
  C1576    1.0000 0.96240  0.29880  0.85365  Biso   1.000  C
  C1577    1.0000 0.98230  0.29990  0.83770  Biso   1.000  C
  C1578    1.0000 0.98050  0.33210  0.86549  Biso   1.000  C
  C1579    1.0000 0.02050  0.33440  0.83359  Biso   1.000  C
  H843     1.0000 0.96980  0.27710  0.82960  Biso   1.000  H
  H844     1.0000 0.96680  0.33130  0.87640  Biso   1.000  H
  C1580    1.0000 0.01870  0.36660  0.86138  Biso   1.000  C
  C1581    1.0000 0.04130  0.33040  0.81752  Biso   1.000  C
  C1582    1.0000 0.03880  0.36780  0.84543  Biso   1.000  C
  C1583    1.0000 0.03910  0.40470  0.87420  Biso   1.000  C
  C1584    1.0000 0.03540  0.29240  0.81147  Biso   1.000  C
  C1585    1.0000 0.06840  0.36680  0.80848  Biso   1.000  C
  H845     1.0000 0.06490  0.39140  0.84260  Biso   1.000  H
  C1586    1.0000 0.01460  0.40830  0.88741  Biso   1.000  C
  C1587    1.0000 0.08080  0.43470  0.87266  Biso   1.000  C
  C1588    1.0000 0.05660  0.29080  0.79638  Biso   1.000  C
  H846     1.0000 0.01690  0.26750  0.81770  Biso   1.000  H
  H847     1.0000 0.07240  0.39270  0.81260  Biso   1.000  H
  C1589    1.0000 0.08960  0.36520  0.79338  Biso   1.000  C
  C1590    1.0000 0.03200  0.44210  0.89908  Biso   1.000  C
  H848     1.0000 0.98610  0.38780  0.88850  Biso   1.000  H
  H849     1.0000 0.09750  0.43220  0.86360  Biso   1.000  H
  C1591    1.0000 0.09820  0.46850  0.88433  Biso   1.000  C
  C1592    1.0000 0.08370  0.32720  0.78734  Biso   1.000  C
  H850     1.0000 0.05250  0.26480  0.79220  Biso   1.000  H
  H851     1.0000 0.10800  0.39000  0.78720  Biso   1.000  H
  C1593    1.0000 0.07370  0.47210  0.89754  Biso   1.000  C
  H852     1.0000 0.01530  0.44460  0.90810  Biso   1.000  H
  H853     1.0000 0.12670  0.48900  0.88330  Biso   1.000  H
  C1594    1.0000 0.11030  0.32200  0.77300  Biso   1.000  C
  C1595    1.0000 0.09670  0.50470  0.91140  Biso   1.000  C
  O137     1.0000 0.10670  0.28732  0.76848  Biso   1.000  O
  O138     1.0000 0.14134  0.35758  0.76872  Biso   1.000  O
  C1596    1.0000 0.03300  0.31740  0.84048  Biso   1.000  C
  C1597    1.0000 0.99780  0.28140  0.84627  Biso   1.000  C
  H854     1.0000 0.98630  0.25710  0.83910  Biso   1.000  H
  C1598    1.0000 0.97960  0.28110  0.86261  Biso   1.000  C
  C1599    1.0000 0.99640  0.31670  0.87316  Biso   1.000  C
  H855     1.0000 0.98390  0.31640  0.88430  Biso   1.000  H
  C1600    1.0000 0.03160  0.35270  0.86738  Biso   1.000  C
  C1601    1.0000 0.04980  0.35300  0.85104  Biso   1.000  C
  H856     1.0000 0.07390  0.37760  0.84710  Biso   1.000  H
  C1602    1.0000 0.94070  0.24500  0.86880  Biso   1.000  C
  C1603    1.0000 0.91450  0.21480  0.87630  Biso   1.000  C
  C1604    1.0000 0.87750  0.18300  0.88460  Biso   1.000  C
  C1605    1.0000 0.87320  0.19430  0.90220  Biso   1.000  C
  H857     1.0000 0.89330  0.21930  0.90780  Biso   1.000  H
  C1606    1.0000 0.78710  0.17790  0.98920  Biso   1.000  C
  H858     1.0000 0.77960  0.15920  0.99910  Biso   1.000  H
  C1607    1.0000 0.79910  0.16850  0.97300  Biso   1.000  C
  H859     1.0000 0.80110  0.14400  0.97210  Biso   1.000  H
  C1608    1.0000 0.80810  0.19370  0.95870  Biso   1.000  C
  C1609    1.0000 0.80950  0.23280  0.96050  Biso   1.000  C
  H860     1.0000 0.81860  0.25200  0.95080  Biso   1.000  H
  C1610    1.0000 0.79740  0.24210  0.97670  Biso   1.000  C
  H861     1.0000 0.79700  0.26740  0.97800  Biso   1.000  H
  C1611    1.0000 0.11970  0.32170  0.77520  Biso   1.000  C
  C1612    1.0000 0.09610  0.31980  0.79215  Biso   1.000  C
  C1613    1.0000 0.07310  0.28240  0.80128  Biso   1.000  C
  H862     1.0000 0.07180  0.25780  0.79690  Biso   1.000  H
  C1614    1.0000 0.05200  0.28110  0.81690  Biso   1.000  C
  H863     1.0000 0.03620  0.25550  0.82310  Biso   1.000  H
  C1615    1.0000 0.05390  0.31710  0.82338  Biso   1.000  C
  C1616    1.0000 0.07680  0.35440  0.81425  Biso   1.000  C
  H864     1.0000 0.07810  0.37900  0.81870  Biso   1.000  H
  C1617    1.0000 0.09800  0.35580  0.79863  Biso   1.000  C
  H865     1.0000 0.11380  0.38130  0.79240  Biso   1.000  H
  C1618    1.0000 0.08700  0.45980  0.90202  Biso   1.000  C
  C1619    1.0000 0.04540  0.42980  0.90448  Biso   1.000  C
  H866     1.0000 0.02930  0.43370  0.91340  Biso   1.000  H
  C1620    1.0000 0.02750  0.39420  0.89394  Biso   1.000  C
  H867     1.0000 0.99910  0.37370  0.89560  Biso   1.000  H
  C1621    1.0000 0.05090  0.38840  0.88092  Biso   1.000  C
  C1622    1.0000 0.09250  0.41840  0.87846  Biso   1.000  C
  H868     1.0000 0.10850  0.41450  0.86960  Biso   1.000  H
  C1623    1.0000 0.11040  0.45400  0.88900  Biso   1.000  C
  H869     1.0000 0.13880  0.47450  0.88730  Biso   1.000  H
  C1624    1.0000 0.09830  0.49910  0.91250  Biso   1.000  C
  C1625    1.0000 0.83010  0.33360  0.03720  Biso   1.000  C
  C1626    1.0000 0.79110  0.30030  0.04140  Biso   1.000  C
  H870     1.0000 0.77610  0.30220  0.05130  Biso   1.000  H
  C1627    1.0000 0.77420  0.26430  0.03110  Biso   1.000  C
  C1628    1.0000 0.79630  0.26160  0.01657  Biso   1.000  C
  C1629    1.0000 0.83530  0.29490  0.01237  Biso   1.000  C
  H871     1.0000 0.85030  0.29300  0.00250  Biso   1.000  H
  C1630    1.0000 0.85220  0.33090  0.02269  Biso   1.000  C
  H872     1.0000 0.87880  0.35360  0.01980  Biso   1.000  H
  C1631    1.0000 0.84580  0.37340  0.04800  Biso   1.000  C
  C1632    1.0000 0.78950  0.25040  0.95270  Biso   1.000  C
  C1633    1.0000 0.78050  0.25950  0.96960  Biso   1.000  C
  H873     1.0000 0.79710  0.27010  0.94330  Biso   1.000  H
  H874     1.0000 0.78200  0.28540  0.97180  Biso   1.000  H
  O139     1.0000 0.52312  0.11944  0.04387  Biso   1.000  O
  O140     1.0000 0.50108  0.07557  0.07524  Biso   1.000  O
  C1634    1.0000 0.53270  0.15610  0.04680  Biso   1.000  C
  O141     1.0000 0.55255  0.17887  0.06011  Biso   1.000  O
  C1635    1.0000 0.52160  0.18070  0.03401  Biso   1.000  C
  C1636    1.0000 0.52570  0.21950  0.03718  Biso   1.000  C
  C1637    1.0000 0.50120  0.15850  0.01870  Biso   1.000  C
  O142     1.0000 0.53026  0.13407  0.09171  Biso   1.000  O
  H875     1.0000 0.53960  0.23460  0.04770  Biso   1.000  H
  C1638    1.0000 0.50950  0.23600  0.02500  Biso   1.000  C
  C1639    1.0000 0.48500  0.17500  0.00651  Biso   1.000  C
  H876     1.0000 0.49840  0.13200  0.01650  Biso   1.000  H
  C1640    1.0000 0.48920  0.21390  0.00968  Biso   1.000  C
  H877     1.0000 0.47110  0.15990  0.99600  Biso   1.000  H
  C1641    1.0000 0.42560  0.23290  0.98030  Biso   1.000  C
  H878     1.0000 0.41350  0.24050  0.98970  Biso   1.000  H
  C1642    1.0000 0.40750  0.22390  0.96330  Biso   1.000  C
  H879     1.0000 0.38310  0.22540  0.96120  Biso   1.000  H
  C1643    1.0000 0.36620  0.15170  0.89130  Biso   1.000  C
  H880     1.0000 0.37190  0.13280  0.89750  Biso   1.000  H
  C1644    1.0000 0.34990  0.14230  0.87350  Biso   1.000  C
  C1645    1.0000 0.34720  0.10840  0.86470  Biso   1.000  C
  C1646    1.0000 0.34460  0.07820  0.85890  Biso   1.000  C
  C1647    1.0000 0.33640  0.03760  0.85365  Biso   1.000  C
  C1648    1.0000 0.31760  0.01770  0.83770  Biso   1.000  C
  C1649    1.0000 0.35160  0.01950  0.86549  Biso   1.000  C
  C1650    1.0000 0.31390  0.97950  0.83359  Biso   1.000  C
  H881     1.0000 0.30730  0.03020  0.82960  Biso   1.000  H
  H882     1.0000 0.36450  0.03320  0.87640  Biso   1.000  H
  C1651    1.0000 0.34790  0.98130  0.86138  Biso   1.000  C
  C1652    1.0000 0.28910  0.95870  0.81752  Biso   1.000  C
  C1653    1.0000 0.32900  0.96120  0.84543  Biso   1.000  C
  C1654    1.0000 0.36560  0.96090  0.87420  Biso   1.000  C
  C1655    1.0000 0.25700  0.96460  0.81147  Biso   1.000  C
  C1656    1.0000 0.29840  0.93160  0.80848  Biso   1.000  C
  H883     1.0000 0.32650  0.93510  0.84260  Biso   1.000  H
  C1657    1.0000 0.39370  0.98540  0.88741  Biso   1.000  C
  C1658    1.0000 0.35390  0.91920  0.87266  Biso   1.000  C
  C1659    1.0000 0.23420  0.94340  0.79638  Biso   1.000  C
  H884     1.0000 0.25060  0.98310  0.81770  Biso   1.000  H
  H885     1.0000 0.32030  0.92760  0.81260  Biso   1.000  H
  C1660    1.0000 0.27560  0.91040  0.79338  Biso   1.000  C
  C1661    1.0000 0.41010  0.96800  0.89908  Biso   1.000  C
  H886     1.0000 0.40170  0.01390  0.88850  Biso   1.000  H
  H887     1.0000 0.33470  0.90250  0.86360  Biso   1.000  H
  C1662    1.0000 0.37030  0.90180  0.88433  Biso   1.000  C
  C1663    1.0000 0.24350  0.91630  0.78734  Biso   1.000  C
  H888     1.0000 0.21230  0.94750  0.79220  Biso   1.000  H
  H889     1.0000 0.28200  0.89200  0.78720  Biso   1.000  H
  C1664    1.0000 0.39840  0.92630  0.89754  Biso   1.000  C
  H890     1.0000 0.42930  0.98470  0.90810  Biso   1.000  H
  H891     1.0000 0.36230  0.87330  0.88330  Biso   1.000  H
  C1665    1.0000 0.21170  0.88970  0.77300  Biso   1.000  C
  C1666    1.0000 0.40800  0.90330  0.91140  Biso   1.000  C
  O143     1.0000 0.18062  0.89330  0.76848  Biso   1.000  O
  O144     1.0000 0.21624  0.85866  0.76872  Biso   1.000  O
  C1667    1.0000 0.28440  0.96700  0.84048  Biso   1.000  C
  C1668    1.0000 0.28360  0.00220  0.84627  Biso   1.000  C
  H892     1.0000 0.27080  0.01370  0.83910  Biso   1.000  H
  C1669    1.0000 0.30150  0.02040  0.86261  Biso   1.000  C
  C1670    1.0000 0.32030  0.00360  0.87316  Biso   1.000  C
  H893     1.0000 0.33250  0.01610  0.88430  Biso   1.000  H
  C1671    1.0000 0.32110  0.96840  0.86738  Biso   1.000  C
  C1672    1.0000 0.30320  0.95020  0.85104  Biso   1.000  C
  H894     1.0000 0.30370  0.92610  0.84710  Biso   1.000  H
  C1673    1.0000 0.30430  0.05930  0.86880  Biso   1.000  C
  C1674    1.0000 0.30030  0.08550  0.87630  Biso   1.000  C
  C1675    1.0000 0.30550  0.12250  0.88460  Biso   1.000  C
  C1676    1.0000 0.32110  0.12680  0.90220  Biso   1.000  C
  H895     1.0000 0.32600  0.10670  0.90780  Biso   1.000  H
  C1677    1.0000 0.39080  0.21290  0.98920  Biso   1.000  C
  H896     1.0000 0.37960  0.22040  0.99910  Biso   1.000  H
  C1678    1.0000 0.36940  0.20090  0.97300  Biso   1.000  C
  H897     1.0000 0.34290  0.19890  0.97210  Biso   1.000  H
  C1679    1.0000 0.38560  0.19190  0.95870  Biso   1.000  C
  C1680    1.0000 0.42330  0.19050  0.96050  Biso   1.000  C
  H898     1.0000 0.43340  0.18140  0.95080  Biso   1.000  H
  C1681    1.0000 0.44470  0.20260  0.97670  Biso   1.000  C
  H899     1.0000 0.47040  0.20300  0.97800  Biso   1.000  H
  C1682    1.0000 0.20200  0.88030  0.77520  Biso   1.000  C
  C1683    1.0000 0.22370  0.90390  0.79215  Biso   1.000  C
  C1684    1.0000 0.20930  0.92690  0.80128  Biso   1.000  C
  H900     1.0000 0.18600  0.92820  0.79690  Biso   1.000  H
  C1685    1.0000 0.22910  0.94800  0.81690  Biso   1.000  C
  H901     1.0000 0.21930  0.96380  0.82310  Biso   1.000  H
  C1686    1.0000 0.26320  0.94610  0.82338  Biso   1.000  C
  C1687    1.0000 0.27760  0.92320  0.81425  Biso   1.000  C
  H902     1.0000 0.30090  0.92190  0.81870  Biso   1.000  H
  C1688    1.0000 0.25780  0.90200  0.79863  Biso   1.000  C
  H903     1.0000 0.26750  0.88620  0.79240  Biso   1.000  H
  C1689    1.0000 0.37280  0.91300  0.90202  Biso   1.000  C
  C1690    1.0000 0.38440  0.95460  0.90448  Biso   1.000  C
  H904     1.0000 0.40440  0.97070  0.91340  Biso   1.000  H
  C1691    1.0000 0.36670  0.97250  0.89394  Biso   1.000  C
  H905     1.0000 0.37460  0.00090  0.89560  Biso   1.000  H
  C1692    1.0000 0.33750  0.94910  0.88092  Biso   1.000  C
  C1693    1.0000 0.32590  0.90750  0.87846  Biso   1.000  C
  H906     1.0000 0.30600  0.89150  0.86960  Biso   1.000  H
  C1694    1.0000 0.34360  0.88960  0.88900  Biso   1.000  C
  H907     1.0000 0.33570  0.86120  0.88730  Biso   1.000  H
  C1695    1.0000 0.40080  0.90170  0.91250  Biso   1.000  C
  C1696    1.0000 0.50350  0.16990  0.03720  Biso   1.000  C
  C1697    1.0000 0.50920  0.20890  0.04140  Biso   1.000  C
  H908     1.0000 0.52610  0.22390  0.05130  Biso   1.000  H
  C1698    1.0000 0.49010  0.22580  0.03110  Biso   1.000  C
  C1699    1.0000 0.46530  0.20370  0.01657  Biso   1.000  C
  C1700    1.0000 0.45960  0.16470  0.01237  Biso   1.000  C
  H909     1.0000 0.44270  0.14970  0.00250  Biso   1.000  H
  C1701    1.0000 0.47870  0.14780  0.02269  Biso   1.000  C
  H910     1.0000 0.47480  0.12120  0.01980  Biso   1.000  H
  C1702    1.0000 0.52760  0.15420  0.04800  Biso   1.000  C
  C1703    1.0000 0.46090  0.21050  0.95270  Biso   1.000  C
  C1704    1.0000 0.47900  0.21950  0.96960  Biso   1.000  C
  H911     1.0000 0.47300  0.20290  0.94330  Biso   1.000  H
  H912     1.0000 0.50340  0.21800  0.97180  Biso   1.000  H
  Cu1      1.0000 0.45344  0.54656  0.55818  Biso   1.000  Cu
  Cu2      1.0000 0.41934  0.58066  0.57717  Biso   1.000  Cu
  Cu3      1.0000 0.45344  0.90688  0.55818  Biso   1.000  Cu
  Cu4      1.0000 0.41934  0.83868  0.57717  Biso   1.000  Cu
  Cu5      1.0000 0.09312  0.54656  0.55818  Biso   1.000  Cu
  Cu6      1.0000 0.16132  0.58066  0.57717  Biso   1.000  Cu
  Cu7      1.0000 0.54656  0.45344  0.05818  Biso   1.000  Cu
  Cu8      1.0000 0.58066  0.41934  0.07717  Biso   1.000  Cu
  Cu9      1.0000 0.54656  0.09312  0.05818  Biso   1.000  Cu
  Cu10     1.0000 0.58066  0.16132  0.07717  Biso   1.000  Cu
  Cu11     1.0000 0.90688  0.45344  0.05818  Biso   1.000  Cu
  Cu12     1.0000 0.83868  0.41934  0.07717  Biso   1.000  Cu
  Cu13     1.0000 0.54656  0.45344  0.44182  Biso   1.000  Cu
  Cu14     1.0000 0.58066  0.41934  0.42283  Biso   1.000  Cu
  Cu15     1.0000 0.90688  0.45344  0.44182  Biso   1.000  Cu
  Cu16     1.0000 0.83868  0.41934  0.42283  Biso   1.000  Cu
  Cu17     1.0000 0.54656  0.09312  0.44182  Biso   1.000  Cu
  Cu18     1.0000 0.58066  0.16132  0.42283  Biso   1.000  Cu
  Cu19     1.0000 0.45344  0.54656  0.94182  Biso   1.000  Cu
  Cu20     1.0000 0.41934  0.58066  0.92283  Biso   1.000  Cu
  Cu21     1.0000 0.09312  0.54656  0.94182  Biso   1.000  Cu
  Cu22     1.0000 0.16132  0.58066  0.92283  Biso   1.000  Cu
  Cu23     1.0000 0.45344  0.90688  0.94182  Biso   1.000  Cu
  Cu24     1.0000 0.41934  0.83868  0.92283  Biso   1.000  Cu
  N1       1.0000 0.51990  0.75995  0.50060  Biso   1.000  N
  C1705    1.0000 0.53870  0.76935  0.48340  Biso   1.000  C
  C1706    1.0000 0.57490  0.78745  0.44950  Biso   1.000  C
  C1707    1.0000 0.58930  0.79465  0.43100  Biso   1.000  C
  C1708    1.0000 0.60850  0.80425  0.41710  Biso   1.000  C
  C1709    1.0000 0.62630  0.81315  0.39950  Biso   1.000  C
  C1710    1.0000 0.65810  0.82905  0.36470  Biso   1.000  C
  H913     1.0000 0.66890  0.83445  0.35280  Biso   1.000  H
  C1711    1.0000 0.70190  0.85095  0.37630  Biso   1.000  C
  H914     1.0000 0.71240  0.85620  0.36430  Biso   1.000  H
  C1712    1.0000 0.67110  0.83555  0.41090  Biso   1.000  C
  C1713    1.0000 0.65580  0.82790  0.42860  Biso   1.000  C
  C1714    1.0000 0.63410  0.81705  0.44120  Biso   1.000  C
  C1715    1.0000 0.57150  0.78575  0.49100  Biso   1.000  C
  N2       1.0000 0.54930  0.77465  0.50730  Biso   1.000  N
  N3       1.0000 0.24005  0.75995  0.50060  Biso   1.000  N
  C1716    1.0000 0.23065  0.76935  0.48340  Biso   1.000  C
  C1717    1.0000 0.21255  0.78745  0.44950  Biso   1.000  C
  C1718    1.0000 0.20535  0.79465  0.43100  Biso   1.000  C
  C1719    1.0000 0.19575  0.80425  0.41710  Biso   1.000  C
  C1720    1.0000 0.18685  0.81315  0.39950  Biso   1.000  C
  C1721    1.0000 0.17095  0.82905  0.36470  Biso   1.000  C
  H915     1.0000 0.16555  0.83445  0.35280  Biso   1.000  H
  C1722    1.0000 0.14905  0.85095  0.37630  Biso   1.000  C
  H916     1.0000 0.14380  0.85620  0.36430  Biso   1.000  H
  C1723    1.0000 0.16445  0.83555  0.41090  Biso   1.000  C
  C1724    1.0000 0.17210  0.82790  0.42860  Biso   1.000  C
  C1725    1.0000 0.18295  0.81705  0.44120  Biso   1.000  C
  C1726    1.0000 0.21425  0.78575  0.49100  Biso   1.000  C
  N4       1.0000 0.22535  0.77465  0.50730  Biso   1.000  N
  N5       1.0000 0.24005  0.48010  0.50060  Biso   1.000  N
  C1727    1.0000 0.23065  0.46130  0.48340  Biso   1.000  C
  C1728    1.0000 0.21255  0.42510  0.44950  Biso   1.000  C
  C1729    1.0000 0.20535  0.41070  0.43100  Biso   1.000  C
  C1730    1.0000 0.19575  0.39150  0.41710  Biso   1.000  C
  C1731    1.0000 0.18685  0.37370  0.39950  Biso   1.000  C
  C1732    1.0000 0.17095  0.34190  0.36470  Biso   1.000  C
  H917     1.0000 0.16555  0.33110  0.35280  Biso   1.000  H
  C1733    1.0000 0.14905  0.29810  0.37630  Biso   1.000  C
  H918     1.0000 0.14380  0.28760  0.36430  Biso   1.000  H
  C1734    1.0000 0.16445  0.32890  0.41090  Biso   1.000  C
  C1735    1.0000 0.17210  0.34420  0.42860  Biso   1.000  C
  C1736    1.0000 0.18295  0.36590  0.44120  Biso   1.000  C
  C1737    1.0000 0.21425  0.42850  0.49100  Biso   1.000  C
  N6       1.0000 0.22535  0.45070  0.50730  Biso   1.000  N
  N7       1.0000 0.48010  0.24005  0.00060  Biso   1.000  N
  C1738    1.0000 0.46130  0.23065  0.98340  Biso   1.000  C
  C1739    1.0000 0.42510  0.21255  0.94950  Biso   1.000  C
  C1740    1.0000 0.41070  0.20535  0.93100  Biso   1.000  C
  C1741    1.0000 0.39150  0.19575  0.91710  Biso   1.000  C
  C1742    1.0000 0.37370  0.18685  0.89950  Biso   1.000  C
  C1743    1.0000 0.34190  0.17095  0.86470  Biso   1.000  C
  H919     1.0000 0.33110  0.16555  0.85280  Biso   1.000  H
  C1744    1.0000 0.29810  0.14905  0.87630  Biso   1.000  C
  H920     1.0000 0.28760  0.14380  0.86430  Biso   1.000  H
  C1745    1.0000 0.32890  0.16445  0.91090  Biso   1.000  C
  C1746    1.0000 0.34420  0.17210  0.92860  Biso   1.000  C
  C1747    1.0000 0.36590  0.18295  0.94120  Biso   1.000  C
  C1748    1.0000 0.42850  0.21425  0.99100  Biso   1.000  C
  N8       1.0000 0.45070  0.22535  0.00730  Biso   1.000  N
  N9       1.0000 0.75995  0.24005  0.00060  Biso   1.000  N
  C1749    1.0000 0.76935  0.23065  0.98340  Biso   1.000  C
  C1750    1.0000 0.78745  0.21255  0.94950  Biso   1.000  C
  C1751    1.0000 0.79465  0.20535  0.93100  Biso   1.000  C
  C1752    1.0000 0.80425  0.19575  0.91710  Biso   1.000  C
  C1753    1.0000 0.81315  0.18685  0.89950  Biso   1.000  C
  C1754    1.0000 0.82905  0.17095  0.86470  Biso   1.000  C
  H921     1.0000 0.83445  0.16555  0.85280  Biso   1.000  H
  C1755    1.0000 0.85095  0.14905  0.87630  Biso   1.000  C
  H922     1.0000 0.85620  0.14380  0.86430  Biso   1.000  H
  C1756    1.0000 0.83555  0.16445  0.91090  Biso   1.000  C
  C1757    1.0000 0.82790  0.17210  0.92860  Biso   1.000  C
  C1758    1.0000 0.81705  0.18295  0.94120  Biso   1.000  C
  C1759    1.0000 0.78575  0.21425  0.99100  Biso   1.000  C
  N10      1.0000 0.77465  0.22535  0.00730  Biso   1.000  N
  N11      1.0000 0.75995  0.51990  0.00060  Biso   1.000  N
  C1760    1.0000 0.76935  0.53870  0.98340  Biso   1.000  C
  C1761    1.0000 0.78745  0.57490  0.94950  Biso   1.000  C
  C1762    1.0000 0.79465  0.58930  0.93100  Biso   1.000  C
  C1763    1.0000 0.80425  0.60850  0.91710  Biso   1.000  C
  C1764    1.0000 0.81315  0.62630  0.89950  Biso   1.000  C
  C1765    1.0000 0.82905  0.65810  0.86470  Biso   1.000  C
  H923     1.0000 0.83445  0.66890  0.85280  Biso   1.000  H
  C1766    1.0000 0.85095  0.70190  0.87630  Biso   1.000  C
  H924     1.0000 0.85620  0.71240  0.86430  Biso   1.000  H
  C1767    1.0000 0.83555  0.67110  0.91090  Biso   1.000  C
  C1768    1.0000 0.82790  0.65580  0.92860  Biso   1.000  C
  C1769    1.0000 0.81705  0.63410  0.94120  Biso   1.000  C
  C1770    1.0000 0.78575  0.57150  0.99100  Biso   1.000  C
  N12      1.0000 0.77465  0.54930  0.00730  Biso   1.000  N
  N13      1.0000 0.75995  0.51990  0.49940  Biso   1.000  N
  C1771    1.0000 0.76935  0.53870  0.51660  Biso   1.000  C
  C1772    1.0000 0.78745  0.57490  0.55050  Biso   1.000  C
  C1773    1.0000 0.79465  0.58930  0.56900  Biso   1.000  C
  C1774    1.0000 0.80425  0.60850  0.58290  Biso   1.000  C
  C1775    1.0000 0.81315  0.62630  0.60050  Biso   1.000  C
  C1776    1.0000 0.82905  0.65810  0.63530  Biso   1.000  C
  H925     1.0000 0.83445  0.66890  0.64720  Biso   1.000  H
  C1777    1.0000 0.85095  0.70190  0.62370  Biso   1.000  C
  H926     1.0000 0.85620  0.71240  0.63570  Biso   1.000  H
  C1778    1.0000 0.83555  0.67110  0.58910  Biso   1.000  C
  C1779    1.0000 0.82790  0.65580  0.57140  Biso   1.000  C
  C1780    1.0000 0.81705  0.63410  0.55880  Biso   1.000  C
  C1781    1.0000 0.78575  0.57150  0.50900  Biso   1.000  C
  N14      1.0000 0.77465  0.54930  0.49270  Biso   1.000  N
  N15      1.0000 0.75995  0.24005  0.49940  Biso   1.000  N
  C1782    1.0000 0.76935  0.23065  0.51660  Biso   1.000  C
  C1783    1.0000 0.78745  0.21255  0.55050  Biso   1.000  C
  C1784    1.0000 0.79465  0.20535  0.56900  Biso   1.000  C
  C1785    1.0000 0.80425  0.19575  0.58290  Biso   1.000  C
  C1786    1.0000 0.81315  0.18685  0.60050  Biso   1.000  C
  C1787    1.0000 0.82905  0.17095  0.63530  Biso   1.000  C
  H927     1.0000 0.83445  0.16555  0.64720  Biso   1.000  H
  C1788    1.0000 0.85095  0.14905  0.62370  Biso   1.000  C
  H928     1.0000 0.85620  0.14380  0.63570  Biso   1.000  H
  C1789    1.0000 0.83555  0.16445  0.58910  Biso   1.000  C
  C1790    1.0000 0.82790  0.17210  0.57140  Biso   1.000  C
  C1791    1.0000 0.81705  0.18295  0.55880  Biso   1.000  C
  C1792    1.0000 0.78575  0.21425  0.50900  Biso   1.000  C
  N16      1.0000 0.77465  0.22535  0.49270  Biso   1.000  N
  N17      1.0000 0.48010  0.24005  0.49940  Biso   1.000  N
  C1793    1.0000 0.46130  0.23065  0.51660  Biso   1.000  C
  C1794    1.0000 0.42510  0.21255  0.55050  Biso   1.000  C
  C1795    1.0000 0.41070  0.20535  0.56900  Biso   1.000  C
  C1796    1.0000 0.39150  0.19575  0.58290  Biso   1.000  C
  C1797    1.0000 0.37370  0.18685  0.60050  Biso   1.000  C
  C1798    1.0000 0.34190  0.17095  0.63530  Biso   1.000  C
  H929     1.0000 0.33110  0.16555  0.64720  Biso   1.000  H
  C1799    1.0000 0.29810  0.14905  0.62370  Biso   1.000  C
  H930     1.0000 0.28760  0.14380  0.63570  Biso   1.000  H
  C1800    1.0000 0.32890  0.16445  0.58910  Biso   1.000  C
  C1801    1.0000 0.34420  0.17210  0.57140  Biso   1.000  C
  C1802    1.0000 0.36590  0.18295  0.55880  Biso   1.000  C
  C1803    1.0000 0.42850  0.21425  0.50900  Biso   1.000  C
  N18      1.0000 0.45070  0.22535  0.49270  Biso   1.000  N
  N19      1.0000 0.24005  0.48010  0.99940  Biso   1.000  N
  C1804    1.0000 0.23065  0.46130  0.01660  Biso   1.000  C
  C1805    1.0000 0.21255  0.42510  0.05050  Biso   1.000  C
  C1806    1.0000 0.20535  0.41070  0.06900  Biso   1.000  C
  C1807    1.0000 0.19575  0.39150  0.08290  Biso   1.000  C
  C1808    1.0000 0.18685  0.37370  0.10050  Biso   1.000  C
  C1809    1.0000 0.17095  0.34190  0.13530  Biso   1.000  C
  H931     1.0000 0.16555  0.33110  0.14720  Biso   1.000  H
  C1810    1.0000 0.14905  0.29810  0.12370  Biso   1.000  C
  H932     1.0000 0.14380  0.28760  0.13570  Biso   1.000  H
  C1811    1.0000 0.16445  0.32890  0.08910  Biso   1.000  C
  C1812    1.0000 0.17210  0.34420  0.07140  Biso   1.000  C
  C1813    1.0000 0.18295  0.36590  0.05880  Biso   1.000  C
  C1814    1.0000 0.21425  0.42850  0.00900  Biso   1.000  C
  N20      1.0000 0.22535  0.45070  0.99270  Biso   1.000  N
  N21      1.0000 0.24005  0.75995  0.99940  Biso   1.000  N
  C1815    1.0000 0.23065  0.76935  0.01660  Biso   1.000  C
  C1816    1.0000 0.21255  0.78745  0.05050  Biso   1.000  C
  C1817    1.0000 0.20535  0.79465  0.06900  Biso   1.000  C
  C1818    1.0000 0.19575  0.80425  0.08290  Biso   1.000  C
  C1819    1.0000 0.18685  0.81315  0.10050  Biso   1.000  C
  C1820    1.0000 0.17095  0.82905  0.13530  Biso   1.000  C
  H933     1.0000 0.16555  0.83445  0.14720  Biso   1.000  H
  C1821    1.0000 0.14905  0.85095  0.12370  Biso   1.000  C
  H934     1.0000 0.14380  0.85620  0.13570  Biso   1.000  H
  C1822    1.0000 0.16445  0.83555  0.08910  Biso   1.000  C
  C1823    1.0000 0.17210  0.82790  0.07140  Biso   1.000  C
  C1824    1.0000 0.18295  0.81705  0.05880  Biso   1.000  C
  C1825    1.0000 0.21425  0.78575  0.00900  Biso   1.000  C
  N22      1.0000 0.22535  0.77465  0.99270  Biso   1.000  N
  N23      1.0000 0.51990  0.75995  0.99940  Biso   1.000  N
  C1826    1.0000 0.53870  0.76935  0.01660  Biso   1.000  C
  C1827    1.0000 0.57490  0.78745  0.05050  Biso   1.000  C
  C1828    1.0000 0.58930  0.79465  0.06900  Biso   1.000  C
  C1829    1.0000 0.60850  0.80425  0.08290  Biso   1.000  C
  C1830    1.0000 0.62630  0.81315  0.10050  Biso   1.000  C
  C1831    1.0000 0.65810  0.82905  0.13530  Biso   1.000  C
  H935     1.0000 0.66890  0.83445  0.14720  Biso   1.000  H
  C1832    1.0000 0.70190  0.85095  0.12370  Biso   1.000  C
  H936     1.0000 0.71240  0.85620  0.13570  Biso   1.000  H
  C1833    1.0000 0.67110  0.83555  0.08910  Biso   1.000  C
  C1834    1.0000 0.65580  0.82790  0.07140  Biso   1.000  C
  C1835    1.0000 0.63410  0.81705  0.05880  Biso   1.000  C
  C1836    1.0000 0.57150  0.78575  0.00900  Biso   1.000  C
  N24      1.0000 0.54930  0.77465  0.99270  Biso   1.000  N
  Cu25     1.0000 0.85880  0.71760  0.25000  Biso   1.000  Cu
  Cu26     1.0000 0.81790  0.63580  0.25000  Biso   1.000  Cu
  Cu27     1.0000 0.28240  0.14120  0.25000  Biso   1.000  Cu
  Cu28     1.0000 0.36420  0.18210  0.25000  Biso   1.000  Cu
  Cu29     1.0000 0.85880  0.14120  0.25000  Biso   1.000  Cu
  Cu30     1.0000 0.81790  0.18210  0.25000  Biso   1.000  Cu
  Cu31     1.0000 0.14120  0.28240  0.75000  Biso   1.000  Cu
  Cu32     1.0000 0.18210  0.36420  0.75000  Biso   1.000  Cu
  Cu33     1.0000 0.71760  0.85880  0.75000  Biso   1.000  Cu
  Cu34     1.0000 0.63580  0.81790  0.75000  Biso   1.000  Cu
  Cu35     1.0000 0.14120  0.85880  0.75000  Biso   1.000  Cu
  Cu36     1.0000 0.18210  0.81790  0.75000  Biso   1.000  Cu
