data_image0
_cell_length_a       22.2055
_cell_length_b       22.2055
_cell_length_c       33.1729
_cell_angle_alpha    90
_cell_angle_beta     90
_cell_angle_gamma    120

_symmetry_space_group_name_H-M    "P 1"
_symmetry_int_tables_number       1

loop_
  _symmetry_equiv_pos_as_xyz
  'x, y, z'

loop_
  _atom_site_label
  _atom_site_occupancy
  _atom_site_fract_x
  _atom_site_fract_y
  _atom_site_fract_z
  _atom_site_thermal_displace_type
  _atom_site_B_iso_or_equiv
  _atom_site_type_symbol
  O1       1.0000 0.45310  0.77620  0.63026  Biso   1.000  O
  C1       1.0000 0.57580  0.57820  0.35800  Biso   1.000  C
  H1       1.0000 0.54450  0.53030  0.36300  Biso   1.000  H
  C2       1.0000 0.63340  0.60040  0.33340  Biso   1.000  C
  C3       1.0000 0.60040  0.74830  0.39080  Biso   1.000  C
  C4       1.0000 0.61530  0.69910  0.36940  Biso   1.000  C
  C5       1.0000 0.57260  0.73330  0.42960  Biso   1.000  C
  H2       1.0000 0.56700  0.69310  0.44320  Biso   1.000  H
  C6       1.0000 0.67910  0.66910  0.32450  Biso   1.000  C
  H3       1.0000 0.71600  0.68090  0.30600  Biso   1.000  H
  C7       1.0000 0.67120  0.72140  0.34260  Biso   1.000  C
  H4       1.0000 0.70200  0.76920  0.33710  Biso   1.000  H
  C8       1.0000 0.56640  0.62990  0.37480  Biso   1.000  C
  H5       1.0000 0.52590  0.61760  0.39020  Biso   1.000  H
  C9       1.0000 0.51490  0.70440  0.51060  Biso   1.000  C
  H6       1.0000 0.52030  0.66990  0.49670  Biso   1.000  H
  C10      1.0000 0.49280  0.69320  0.55000  Biso   1.000  C
  H7       1.0000 0.48490  0.65210  0.56340  Biso   1.000  H
  O2       1.0000 0.59140  0.48110  0.31860  Biso   1.000  O
  C11      1.0000 0.63630  0.54130  0.31320  Biso   1.000  C
  O3       1.0000 0.69000  0.55460  0.29550  Biso   1.000  O
  C12      1.0000 0.52150  0.81290  0.55610  Biso   1.000  C
  H8       1.0000 0.51160  0.84550  0.56860  Biso   1.000  H
  C13      1.0000 0.55210  0.82840  0.51830  Biso   1.000  C
  H9       1.0000 0.56360  0.87160  0.50620  Biso   1.000  H
  O4       1.0000 0.64170  0.50800  0.30350  Biso   1.000  O
  C14      1.0000 0.68650  0.56770  0.30820  Biso   1.000  C
  O5       1.0000 0.74800  0.58840  0.29820  Biso   1.000  O
  C15      1.0000 0.67620  0.61750  0.33380  Biso   1.000  C
  C16      1.0000 0.62090  0.59130  0.35990  Biso   1.000  C
  H10      1.0000 0.59250  0.54250  0.36350  Biso   1.000  H
  C17      1.0000 0.60720  0.63650  0.38080  Biso   1.000  C
  H11      1.0000 0.56770  0.61790  0.39800  Biso   1.000  H
  C18      1.0000 0.70730  0.73350  0.35250  Biso   1.000  C
  H12      1.0000 0.73840  0.78210  0.35010  Biso   1.000  H
  C19      1.0000 0.71980  0.68810  0.33120  Biso   1.000  C
  H13      1.0000 0.75950  0.70570  0.31420  Biso   1.000  H
  C20      1.0000 0.64930  0.70920  0.37770  Biso   1.000  C
  C21      1.0000 0.63480  0.76230  0.39770  Biso   1.000  C
  C22      1.0000 0.60820  0.74930  0.43660  Biso   1.000  C
  H14      1.0000 0.59890  0.70770  0.44990  Biso   1.000  H
  O6       1.0000 0.22380  0.67690  0.63026  Biso   1.000  O
  C23      1.0000 0.42180  0.99760  0.35800  Biso   1.000  C
  H15      1.0000 0.46970  0.01420  0.36300  Biso   1.000  H
  C24      1.0000 0.39960  0.03300  0.33340  Biso   1.000  C
  C25      1.0000 0.25170  0.85210  0.39080  Biso   1.000  C
  C26      1.0000 0.30090  0.91620  0.36940  Biso   1.000  C
  C27      1.0000 0.26670  0.83930  0.42960  Biso   1.000  C
  H16      1.0000 0.30690  0.87390  0.44320  Biso   1.000  H
  C28      1.0000 0.33090  0.01000  0.32450  Biso   1.000  C
  H17      1.0000 0.31910  0.03510  0.30600  Biso   1.000  H
  C29      1.0000 0.27860  0.94980  0.34260  Biso   1.000  C
  H18      1.0000 0.23080  0.93280  0.33710  Biso   1.000  H
  C30      1.0000 0.37010  0.93650  0.37480  Biso   1.000  C
  H19      1.0000 0.38240  0.90830  0.39020  Biso   1.000  H
  C31      1.0000 0.29560  0.81050  0.51060  Biso   1.000  C
  H20      1.0000 0.33010  0.85040  0.49670  Biso   1.000  H
  C32      1.0000 0.30680  0.79960  0.55000  Biso   1.000  C
  H21      1.0000 0.34790  0.83280  0.56340  Biso   1.000  H
  O7       1.0000 0.51890  0.11030  0.31860  Biso   1.000  O
  C33      1.0000 0.45870  0.09500  0.31320  Biso   1.000  C
  O8       1.0000 0.44540  0.13540  0.29550  Biso   1.000  O
  C34      1.0000 0.18710  0.70860  0.55610  Biso   1.000  C
  H22      1.0000 0.15450  0.66610  0.56860  Biso   1.000  H
  C35      1.0000 0.17160  0.72370  0.51830  Biso   1.000  C
  H23      1.0000 0.12840  0.69200  0.50620  Biso   1.000  H
  O9       1.0000 0.49200  0.13370  0.30350  Biso   1.000  O
  C36      1.0000 0.43230  0.11880  0.30820  Biso   1.000  C
  O10      1.0000 0.41160  0.15960  0.29820  Biso   1.000  O
  C37      1.0000 0.38250  0.05870  0.33380  Biso   1.000  C
  C38      1.0000 0.40870  0.02960  0.35990  Biso   1.000  C
  H24      1.0000 0.45750  0.05000  0.36350  Biso   1.000  H
  C39      1.0000 0.36350  0.97070  0.38080  Biso   1.000  C
  H25      1.0000 0.38210  0.94980  0.39800  Biso   1.000  H
  C40      1.0000 0.26650  0.97380  0.35250  Biso   1.000  C
  H26      1.0000 0.21790  0.95630  0.35010  Biso   1.000  H
  C41      1.0000 0.31190  0.03170  0.33120  Biso   1.000  C
  H27      1.0000 0.29430  0.05380  0.31420  Biso   1.000  H
  C42      1.0000 0.29080  0.94010  0.37770  Biso   1.000  C
  C43      1.0000 0.23770  0.87250  0.39770  Biso   1.000  C
  C44      1.0000 0.25070  0.85890  0.43660  Biso   1.000  C
  H28      1.0000 0.29230  0.89120  0.44990  Biso   1.000  H
  O11      1.0000 0.32310  0.54690  0.63026  Biso   1.000  O
  C45      1.0000 0.00240  0.42420  0.35800  Biso   1.000  C
  H29      1.0000 0.98580  0.45550  0.36300  Biso   1.000  H
  C46      1.0000 0.96700  0.36660  0.33340  Biso   1.000  C
  C47      1.0000 0.14790  0.39960  0.39080  Biso   1.000  C
  C48      1.0000 0.08380  0.38470  0.36940  Biso   1.000  C
  C49      1.0000 0.16070  0.42740  0.42960  Biso   1.000  C
  H30      1.0000 0.12610  0.43300  0.44320  Biso   1.000  H
  C50      1.0000 0.99000  0.32090  0.32450  Biso   1.000  C
  H31      1.0000 0.96490  0.28400  0.30600  Biso   1.000  H
  C51      1.0000 0.05020  0.32880  0.34260  Biso   1.000  C
  H32      1.0000 0.06720  0.29800  0.33710  Biso   1.000  H
  C52      1.0000 0.06350  0.43360  0.37480  Biso   1.000  C
  H33      1.0000 0.09170  0.47410  0.39020  Biso   1.000  H
  C53      1.0000 0.18950  0.48510  0.51060  Biso   1.000  C
  H34      1.0000 0.14960  0.47970  0.49670  Biso   1.000  H
  C54      1.0000 0.20040  0.50720  0.55000  Biso   1.000  C
  H35      1.0000 0.16720  0.51510  0.56340  Biso   1.000  H
  O12      1.0000 0.88970  0.40860  0.31860  Biso   1.000  O
  C55      1.0000 0.90500  0.36370  0.31320  Biso   1.000  C
  O13      1.0000 0.86460  0.31000  0.29550  Biso   1.000  O
  C56      1.0000 0.29140  0.47850  0.55610  Biso   1.000  C
  H36      1.0000 0.33390  0.48840  0.56860  Biso   1.000  H
  C57      1.0000 0.27630  0.44790  0.51830  Biso   1.000  C
  H37      1.0000 0.30800  0.43640  0.50620  Biso   1.000  H
  O14      1.0000 0.86630  0.35830  0.30350  Biso   1.000  O
  C58      1.0000 0.88120  0.31350  0.30820  Biso   1.000  C
  O15      1.0000 0.84040  0.25200  0.29820  Biso   1.000  O
  C59      1.0000 0.94130  0.32380  0.33380  Biso   1.000  C
  C60      1.0000 0.97040  0.37910  0.35990  Biso   1.000  C
  H38      1.0000 0.95000  0.40750  0.36350  Biso   1.000  H
  C61      1.0000 0.02930  0.39280  0.38080  Biso   1.000  C
  H39      1.0000 0.05020  0.43230  0.39800  Biso   1.000  H
  C62      1.0000 0.02620  0.29270  0.35250  Biso   1.000  C
  H40      1.0000 0.04370  0.26160  0.35010  Biso   1.000  H
  C63      1.0000 0.96830  0.28020  0.33120  Biso   1.000  C
  H41      1.0000 0.94620  0.24050  0.31420  Biso   1.000  H
  C64      1.0000 0.05990  0.35070  0.37770  Biso   1.000  C
  C65      1.0000 0.12750  0.36520  0.39770  Biso   1.000  C
  C66      1.0000 0.14110  0.39180  0.43660  Biso   1.000  C
  H42      1.0000 0.10880  0.40110  0.44990  Biso   1.000  H
  O16      1.0000 0.54690  0.22380  0.13026  Biso   1.000  O
  C67      1.0000 0.42420  0.42180  0.85800  Biso   1.000  C
  H43      1.0000 0.45550  0.46970  0.86300  Biso   1.000  H
  C68      1.0000 0.36660  0.39960  0.83340  Biso   1.000  C
  C69      1.0000 0.39960  0.25170  0.89080  Biso   1.000  C
  C70      1.0000 0.38470  0.30090  0.86940  Biso   1.000  C
  C71      1.0000 0.42740  0.26670  0.92960  Biso   1.000  C
  H44      1.0000 0.43300  0.30690  0.94320  Biso   1.000  H
  C72      1.0000 0.32090  0.33090  0.82450  Biso   1.000  C
  H45      1.0000 0.28400  0.31910  0.80600  Biso   1.000  H
  C73      1.0000 0.32880  0.27860  0.84260  Biso   1.000  C
  H46      1.0000 0.29800  0.23080  0.83710  Biso   1.000  H
  C74      1.0000 0.43360  0.37010  0.87480  Biso   1.000  C
  H47      1.0000 0.47410  0.38240  0.89020  Biso   1.000  H
  C75      1.0000 0.48510  0.29560  0.01060  Biso   1.000  C
  H48      1.0000 0.47970  0.33010  0.99670  Biso   1.000  H
  C76      1.0000 0.50720  0.30680  0.05000  Biso   1.000  C
  H49      1.0000 0.51510  0.34790  0.06340  Biso   1.000  H
  O17      1.0000 0.40860  0.51890  0.81860  Biso   1.000  O
  C77      1.0000 0.36370  0.45870  0.81320  Biso   1.000  C
  O18      1.0000 0.31000  0.44540  0.79550  Biso   1.000  O
  C78      1.0000 0.47850  0.18710  0.05610  Biso   1.000  C
  H50      1.0000 0.48840  0.15450  0.06860  Biso   1.000  H
  C79      1.0000 0.44790  0.17160  0.01830  Biso   1.000  C
  H51      1.0000 0.43640  0.12840  0.00620  Biso   1.000  H
  O19      1.0000 0.35830  0.49200  0.80350  Biso   1.000  O
  C80      1.0000 0.31350  0.43230  0.80820  Biso   1.000  C
  O20      1.0000 0.25200  0.41160  0.79820  Biso   1.000  O
  C81      1.0000 0.32380  0.38250  0.83380  Biso   1.000  C
  C82      1.0000 0.37910  0.40870  0.85990  Biso   1.000  C
  H52      1.0000 0.40750  0.45750  0.86350  Biso   1.000  H
  C83      1.0000 0.39280  0.36350  0.88080  Biso   1.000  C
  H53      1.0000 0.43230  0.38210  0.89800  Biso   1.000  H
  C84      1.0000 0.29270  0.26650  0.85250  Biso   1.000  C
  H54      1.0000 0.26160  0.21790  0.85010  Biso   1.000  H
  C85      1.0000 0.28020  0.31190  0.83120  Biso   1.000  C
  H55      1.0000 0.24050  0.29430  0.81420  Biso   1.000  H
  C86      1.0000 0.35070  0.29080  0.87770  Biso   1.000  C
  C87      1.0000 0.36520  0.23770  0.89770  Biso   1.000  C
  C88      1.0000 0.39180  0.25070  0.93660  Biso   1.000  C
  H56      1.0000 0.40110  0.29230  0.94990  Biso   1.000  H
  O21      1.0000 0.77620  0.32310  0.13026  Biso   1.000  O
  C89      1.0000 0.57820  0.00240  0.85800  Biso   1.000  C
  H57      1.0000 0.53030  0.98580  0.86300  Biso   1.000  H
  C90      1.0000 0.60040  0.96700  0.83340  Biso   1.000  C
  C91      1.0000 0.74830  0.14790  0.89080  Biso   1.000  C
  C92      1.0000 0.69910  0.08380  0.86940  Biso   1.000  C
  C93      1.0000 0.73330  0.16070  0.92960  Biso   1.000  C
  H58      1.0000 0.69310  0.12610  0.94320  Biso   1.000  H
  C94      1.0000 0.66910  0.99000  0.82450  Biso   1.000  C
  H59      1.0000 0.68090  0.96490  0.80600  Biso   1.000  H
  C95      1.0000 0.72140  0.05020  0.84260  Biso   1.000  C
  H60      1.0000 0.76920  0.06720  0.83710  Biso   1.000  H
  C96      1.0000 0.62990  0.06350  0.87480  Biso   1.000  C
  H61      1.0000 0.61760  0.09170  0.89020  Biso   1.000  H
  C97      1.0000 0.70440  0.18950  0.01060  Biso   1.000  C
  H62      1.0000 0.66990  0.14960  0.99670  Biso   1.000  H
  C98      1.0000 0.69320  0.20040  0.05000  Biso   1.000  C
  H63      1.0000 0.65210  0.16720  0.06340  Biso   1.000  H
  O22      1.0000 0.48110  0.88970  0.81860  Biso   1.000  O
  C99      1.0000 0.54130  0.90500  0.81320  Biso   1.000  C
  O23      1.0000 0.55460  0.86460  0.79550  Biso   1.000  O
  C100     1.0000 0.81290  0.29140  0.05610  Biso   1.000  C
  H64      1.0000 0.84550  0.33390  0.06860  Biso   1.000  H
  C101     1.0000 0.82840  0.27630  0.01830  Biso   1.000  C
  H65      1.0000 0.87160  0.30800  0.00620  Biso   1.000  H
  O24      1.0000 0.50800  0.86630  0.80350  Biso   1.000  O
  C102     1.0000 0.56770  0.88120  0.80820  Biso   1.000  C
  O25      1.0000 0.58840  0.84040  0.79820  Biso   1.000  O
  C103     1.0000 0.61750  0.94130  0.83380  Biso   1.000  C
  C104     1.0000 0.59130  0.97040  0.85990  Biso   1.000  C
  H66      1.0000 0.54250  0.95000  0.86350  Biso   1.000  H
  C105     1.0000 0.63650  0.02930  0.88080  Biso   1.000  C
  H67      1.0000 0.61790  0.05020  0.89800  Biso   1.000  H
  C106     1.0000 0.73350  0.02620  0.85250  Biso   1.000  C
  H68      1.0000 0.78210  0.04370  0.85010  Biso   1.000  H
  C107     1.0000 0.68810  0.96830  0.83120  Biso   1.000  C
  H69      1.0000 0.70570  0.94620  0.81420  Biso   1.000  H
  C108     1.0000 0.70920  0.05990  0.87770  Biso   1.000  C
  C109     1.0000 0.76230  0.12750  0.89770  Biso   1.000  C
  C110     1.0000 0.74930  0.14110  0.93660  Biso   1.000  C
  H70      1.0000 0.70770  0.10880  0.94990  Biso   1.000  H
  O26      1.0000 0.67690  0.45310  0.13026  Biso   1.000  O
  C111     1.0000 0.99760  0.57580  0.85800  Biso   1.000  C
  H71      1.0000 0.01420  0.54450  0.86300  Biso   1.000  H
  C112     1.0000 0.03300  0.63340  0.83340  Biso   1.000  C
  C113     1.0000 0.85210  0.60040  0.89080  Biso   1.000  C
  C114     1.0000 0.91620  0.61530  0.86940  Biso   1.000  C
  C115     1.0000 0.83930  0.57260  0.92960  Biso   1.000  C
  H72      1.0000 0.87390  0.56700  0.94320  Biso   1.000  H
  C116     1.0000 0.01000  0.67910  0.82450  Biso   1.000  C
  H73      1.0000 0.03510  0.71600  0.80600  Biso   1.000  H
  C117     1.0000 0.94980  0.67120  0.84260  Biso   1.000  C
  H74      1.0000 0.93280  0.70200  0.83710  Biso   1.000  H
  C118     1.0000 0.93650  0.56640  0.87480  Biso   1.000  C
  H75      1.0000 0.90830  0.52590  0.89020  Biso   1.000  H
  C119     1.0000 0.81050  0.51490  0.01060  Biso   1.000  C
  H76      1.0000 0.85040  0.52030  0.99670  Biso   1.000  H
  C120     1.0000 0.79960  0.49280  0.05000  Biso   1.000  C
  H77      1.0000 0.83280  0.48490  0.06340  Biso   1.000  H
  O27      1.0000 0.11030  0.59140  0.81860  Biso   1.000  O
  C121     1.0000 0.09500  0.63630  0.81320  Biso   1.000  C
  O28      1.0000 0.13540  0.69000  0.79550  Biso   1.000  O
  C122     1.0000 0.70860  0.52150  0.05610  Biso   1.000  C
  H78      1.0000 0.66610  0.51160  0.06860  Biso   1.000  H
  C123     1.0000 0.72370  0.55210  0.01830  Biso   1.000  C
  H79      1.0000 0.69200  0.56360  0.00620  Biso   1.000  H
  O29      1.0000 0.13370  0.64170  0.80350  Biso   1.000  O
  C124     1.0000 0.11880  0.68650  0.80820  Biso   1.000  C
  O30      1.0000 0.15960  0.74800  0.79820  Biso   1.000  O
  C125     1.0000 0.05870  0.67620  0.83380  Biso   1.000  C
  C126     1.0000 0.02960  0.62090  0.85990  Biso   1.000  C
  H80      1.0000 0.05000  0.59250  0.86350  Biso   1.000  H
  C127     1.0000 0.97070  0.60720  0.88080  Biso   1.000  C
  H81      1.0000 0.94980  0.56770  0.89800  Biso   1.000  H
  C128     1.0000 0.97380  0.70730  0.85250  Biso   1.000  C
  H82      1.0000 0.95630  0.73840  0.85010  Biso   1.000  H
  C129     1.0000 0.03170  0.71980  0.83120  Biso   1.000  C
  H83      1.0000 0.05380  0.75950  0.81420  Biso   1.000  H
  C130     1.0000 0.94010  0.64930  0.87770  Biso   1.000  C
  C131     1.0000 0.87250  0.63480  0.89770  Biso   1.000  C
  C132     1.0000 0.85890  0.60820  0.93660  Biso   1.000  C
  H84      1.0000 0.89120  0.59890  0.94990  Biso   1.000  H
  O31      1.0000 0.77620  0.45310  0.36974  Biso   1.000  O
  C133     1.0000 0.57820  0.57580  0.64200  Biso   1.000  C
  H85      1.0000 0.53030  0.54450  0.63700  Biso   1.000  H
  C134     1.0000 0.60040  0.63340  0.66660  Biso   1.000  C
  C135     1.0000 0.74830  0.60040  0.60920  Biso   1.000  C
  C136     1.0000 0.69910  0.61530  0.63060  Biso   1.000  C
  C137     1.0000 0.73330  0.57260  0.57040  Biso   1.000  C
  H86      1.0000 0.69310  0.56700  0.55680  Biso   1.000  H
  C138     1.0000 0.66910  0.67910  0.67550  Biso   1.000  C
  H87      1.0000 0.68090  0.71600  0.69400  Biso   1.000  H
  C139     1.0000 0.72140  0.67120  0.65740  Biso   1.000  C
  H88      1.0000 0.76920  0.70200  0.66290  Biso   1.000  H
  C140     1.0000 0.62990  0.56640  0.62520  Biso   1.000  C
  H89      1.0000 0.61760  0.52590  0.60980  Biso   1.000  H
  C141     1.0000 0.70440  0.51490  0.48940  Biso   1.000  C
  H90      1.0000 0.66990  0.52030  0.50330  Biso   1.000  H
  C142     1.0000 0.69320  0.49280  0.45000  Biso   1.000  C
  H91      1.0000 0.65210  0.48490  0.43660  Biso   1.000  H
  O32      1.0000 0.48110  0.59140  0.68140  Biso   1.000  O
  C143     1.0000 0.54130  0.63630  0.68680  Biso   1.000  C
  O33      1.0000 0.55460  0.69000  0.70450  Biso   1.000  O
  C144     1.0000 0.81290  0.52150  0.44390  Biso   1.000  C
  H92      1.0000 0.84550  0.51160  0.43140  Biso   1.000  H
  C145     1.0000 0.82840  0.55210  0.48170  Biso   1.000  C
  H93      1.0000 0.87160  0.56360  0.49380  Biso   1.000  H
  O34      1.0000 0.50800  0.64170  0.69650  Biso   1.000  O
  C146     1.0000 0.56770  0.68650  0.69180  Biso   1.000  C
  O35      1.0000 0.58840  0.74800  0.70180  Biso   1.000  O
  C147     1.0000 0.61750  0.67620  0.66620  Biso   1.000  C
  C148     1.0000 0.59130  0.62090  0.64010  Biso   1.000  C
  H94      1.0000 0.54250  0.59250  0.63650  Biso   1.000  H
  C149     1.0000 0.63650  0.60720  0.61920  Biso   1.000  C
  H95      1.0000 0.61790  0.56770  0.60200  Biso   1.000  H
  C150     1.0000 0.73350  0.70730  0.64750  Biso   1.000  C
  H96      1.0000 0.78210  0.73840  0.64990  Biso   1.000  H
  C151     1.0000 0.68810  0.71980  0.66880  Biso   1.000  C
  H97      1.0000 0.70570  0.75950  0.68580  Biso   1.000  H
  C152     1.0000 0.70920  0.64930  0.62230  Biso   1.000  C
  C153     1.0000 0.76230  0.63480  0.60230  Biso   1.000  C
  C154     1.0000 0.74930  0.60820  0.56340  Biso   1.000  C
  H98      1.0000 0.70770  0.59890  0.55010  Biso   1.000  H
  O36      1.0000 0.67690  0.22380  0.36974  Biso   1.000  O
  C155     1.0000 0.99760  0.42180  0.64200  Biso   1.000  C
  H99      1.0000 0.01420  0.46970  0.63700  Biso   1.000  H
  C156     1.0000 0.03300  0.39960  0.66660  Biso   1.000  C
  C157     1.0000 0.85210  0.25170  0.60920  Biso   1.000  C
  C158     1.0000 0.91620  0.30090  0.63060  Biso   1.000  C
  C159     1.0000 0.83930  0.26670  0.57040  Biso   1.000  C
  H100     1.0000 0.87390  0.30690  0.55680  Biso   1.000  H
  C160     1.0000 0.01000  0.33090  0.67550  Biso   1.000  C
  H101     1.0000 0.03510  0.31910  0.69400  Biso   1.000  H
  C161     1.0000 0.94980  0.27860  0.65740  Biso   1.000  C
  H102     1.0000 0.93280  0.23080  0.66290  Biso   1.000  H
  C162     1.0000 0.93650  0.37010  0.62520  Biso   1.000  C
  H103     1.0000 0.90830  0.38240  0.60980  Biso   1.000  H
  C163     1.0000 0.81050  0.29560  0.48940  Biso   1.000  C
  H104     1.0000 0.85040  0.33010  0.50330  Biso   1.000  H
  C164     1.0000 0.79960  0.30680  0.45000  Biso   1.000  C
  H105     1.0000 0.83280  0.34790  0.43660  Biso   1.000  H
  O37      1.0000 0.11030  0.51890  0.68140  Biso   1.000  O
  C165     1.0000 0.09500  0.45870  0.68680  Biso   1.000  C
  O38      1.0000 0.13540  0.44540  0.70450  Biso   1.000  O
  C166     1.0000 0.70860  0.18710  0.44390  Biso   1.000  C
  H106     1.0000 0.66610  0.15450  0.43140  Biso   1.000  H
  C167     1.0000 0.72370  0.17160  0.48170  Biso   1.000  C
  H107     1.0000 0.69200  0.12840  0.49380  Biso   1.000  H
  O39      1.0000 0.13370  0.49200  0.69650  Biso   1.000  O
  C168     1.0000 0.11880  0.43230  0.69180  Biso   1.000  C
  O40      1.0000 0.15960  0.41160  0.70180  Biso   1.000  O
  C169     1.0000 0.05870  0.38250  0.66620  Biso   1.000  C
  C170     1.0000 0.02960  0.40870  0.64010  Biso   1.000  C
  H108     1.0000 0.05000  0.45750  0.63650  Biso   1.000  H
  C171     1.0000 0.97070  0.36350  0.61920  Biso   1.000  C
  H109     1.0000 0.94980  0.38210  0.60200  Biso   1.000  H
  C172     1.0000 0.97380  0.26650  0.64750  Biso   1.000  C
  H110     1.0000 0.95630  0.21790  0.64990  Biso   1.000  H
  C173     1.0000 0.03170  0.31190  0.66880  Biso   1.000  C
  H111     1.0000 0.05380  0.29430  0.68580  Biso   1.000  H
  C174     1.0000 0.94010  0.29080  0.62230  Biso   1.000  C
  C175     1.0000 0.87250  0.23770  0.60230  Biso   1.000  C
  C176     1.0000 0.85890  0.25070  0.56340  Biso   1.000  C
  H112     1.0000 0.89120  0.29230  0.55010  Biso   1.000  H
  O41      1.0000 0.54690  0.32310  0.36974  Biso   1.000  O
  C177     1.0000 0.42420  0.00240  0.64200  Biso   1.000  C
  H113     1.0000 0.45550  0.98580  0.63700  Biso   1.000  H
  C178     1.0000 0.36660  0.96700  0.66660  Biso   1.000  C
  C179     1.0000 0.39960  0.14790  0.60920  Biso   1.000  C
  C180     1.0000 0.38470  0.08380  0.63060  Biso   1.000  C
  C181     1.0000 0.42740  0.16070  0.57040  Biso   1.000  C
  H114     1.0000 0.43300  0.12610  0.55680  Biso   1.000  H
  C182     1.0000 0.32090  0.99000  0.67550  Biso   1.000  C
  H115     1.0000 0.28400  0.96490  0.69400  Biso   1.000  H
  C183     1.0000 0.32880  0.05020  0.65740  Biso   1.000  C
  H116     1.0000 0.29800  0.06720  0.66290  Biso   1.000  H
  C184     1.0000 0.43360  0.06350  0.62520  Biso   1.000  C
  H117     1.0000 0.47410  0.09170  0.60980  Biso   1.000  H
  C185     1.0000 0.48510  0.18950  0.48940  Biso   1.000  C
  H118     1.0000 0.47970  0.14960  0.50330  Biso   1.000  H
  C186     1.0000 0.50720  0.20040  0.45000  Biso   1.000  C
  H119     1.0000 0.51510  0.16720  0.43660  Biso   1.000  H
  O42      1.0000 0.40860  0.88970  0.68140  Biso   1.000  O
  C187     1.0000 0.36370  0.90500  0.68680  Biso   1.000  C
  O43      1.0000 0.31000  0.86460  0.70450  Biso   1.000  O
  C188     1.0000 0.47850  0.29140  0.44390  Biso   1.000  C
  H120     1.0000 0.48840  0.33390  0.43140  Biso   1.000  H
  C189     1.0000 0.44790  0.27630  0.48170  Biso   1.000  C
  H121     1.0000 0.43640  0.30800  0.49380  Biso   1.000  H
  O44      1.0000 0.35830  0.86630  0.69650  Biso   1.000  O
  C190     1.0000 0.31350  0.88120  0.69180  Biso   1.000  C
  O45      1.0000 0.25200  0.84040  0.70180  Biso   1.000  O
  C191     1.0000 0.32380  0.94130  0.66620  Biso   1.000  C
  C192     1.0000 0.37910  0.97040  0.64010  Biso   1.000  C
  H122     1.0000 0.40750  0.95000  0.63650  Biso   1.000  H
  C193     1.0000 0.39280  0.02930  0.61920  Biso   1.000  C
  H123     1.0000 0.43230  0.05020  0.60200  Biso   1.000  H
  C194     1.0000 0.29270  0.02620  0.64750  Biso   1.000  C
  H124     1.0000 0.26160  0.04370  0.64990  Biso   1.000  H
  C195     1.0000 0.28020  0.96830  0.66880  Biso   1.000  C
  H125     1.0000 0.24050  0.94620  0.68580  Biso   1.000  H
  C196     1.0000 0.35070  0.05990  0.62230  Biso   1.000  C
  C197     1.0000 0.36520  0.12750  0.60230  Biso   1.000  C
  C198     1.0000 0.39180  0.14110  0.56340  Biso   1.000  C
  H126     1.0000 0.40110  0.10880  0.55010  Biso   1.000  H
  O46      1.0000 0.22380  0.54690  0.86974  Biso   1.000  O
  C199     1.0000 0.42180  0.42420  0.14200  Biso   1.000  C
  H127     1.0000 0.46970  0.45550  0.13700  Biso   1.000  H
  C200     1.0000 0.39960  0.36660  0.16660  Biso   1.000  C
  C201     1.0000 0.25170  0.39960  0.10920  Biso   1.000  C
  C202     1.0000 0.30090  0.38470  0.13060  Biso   1.000  C
  C203     1.0000 0.26670  0.42740  0.07040  Biso   1.000  C
  H128     1.0000 0.30690  0.43300  0.05680  Biso   1.000  H
  C204     1.0000 0.33090  0.32090  0.17550  Biso   1.000  C
  H129     1.0000 0.31910  0.28400  0.19400  Biso   1.000  H
  C205     1.0000 0.27860  0.32880  0.15740  Biso   1.000  C
  H130     1.0000 0.23080  0.29800  0.16290  Biso   1.000  H
  C206     1.0000 0.37010  0.43360  0.12520  Biso   1.000  C
  H131     1.0000 0.38240  0.47410  0.10980  Biso   1.000  H
  C207     1.0000 0.29560  0.48510  0.98940  Biso   1.000  C
  H132     1.0000 0.33010  0.47970  0.00330  Biso   1.000  H
  C208     1.0000 0.30680  0.50720  0.95000  Biso   1.000  C
  H133     1.0000 0.34790  0.51510  0.93660  Biso   1.000  H
  O47      1.0000 0.51890  0.40860  0.18140  Biso   1.000  O
  C209     1.0000 0.45870  0.36370  0.18680  Biso   1.000  C
  O48      1.0000 0.44540  0.31000  0.20450  Biso   1.000  O
  C210     1.0000 0.18710  0.47850  0.94390  Biso   1.000  C
  H134     1.0000 0.15450  0.48840  0.93140  Biso   1.000  H
  C211     1.0000 0.17160  0.44790  0.98170  Biso   1.000  C
  H135     1.0000 0.12840  0.43640  0.99380  Biso   1.000  H
  O49      1.0000 0.49200  0.35830  0.19650  Biso   1.000  O
  C212     1.0000 0.43230  0.31350  0.19180  Biso   1.000  C
  O50      1.0000 0.41160  0.25200  0.20180  Biso   1.000  O
  C213     1.0000 0.38250  0.32380  0.16620  Biso   1.000  C
  C214     1.0000 0.40870  0.37910  0.14010  Biso   1.000  C
  H136     1.0000 0.45750  0.40750  0.13650  Biso   1.000  H
  C215     1.0000 0.36350  0.39280  0.11920  Biso   1.000  C
  H137     1.0000 0.38210  0.43230  0.10200  Biso   1.000  H
  C216     1.0000 0.26650  0.29270  0.14750  Biso   1.000  C
  H138     1.0000 0.21790  0.26160  0.14990  Biso   1.000  H
  C217     1.0000 0.31190  0.28020  0.16880  Biso   1.000  C
  H139     1.0000 0.29430  0.24050  0.18580  Biso   1.000  H
  C218     1.0000 0.29080  0.35070  0.12230  Biso   1.000  C
  C219     1.0000 0.23770  0.36520  0.10230  Biso   1.000  C
  C220     1.0000 0.25070  0.39180  0.06340  Biso   1.000  C
  H140     1.0000 0.29230  0.40110  0.05010  Biso   1.000  H
  O51      1.0000 0.32310  0.77620  0.86974  Biso   1.000  O
  C221     1.0000 0.00240  0.57820  0.14200  Biso   1.000  C
  H141     1.0000 0.98580  0.53030  0.13700  Biso   1.000  H
  C222     1.0000 0.96700  0.60040  0.16660  Biso   1.000  C
  C223     1.0000 0.14790  0.74830  0.10920  Biso   1.000  C
  C224     1.0000 0.08380  0.69910  0.13060  Biso   1.000  C
  C225     1.0000 0.16070  0.73330  0.07040  Biso   1.000  C
  H142     1.0000 0.12610  0.69310  0.05680  Biso   1.000  H
  C226     1.0000 0.99000  0.66910  0.17550  Biso   1.000  C
  H143     1.0000 0.96490  0.68090  0.19400  Biso   1.000  H
  C227     1.0000 0.05020  0.72140  0.15740  Biso   1.000  C
  H144     1.0000 0.06720  0.76920  0.16290  Biso   1.000  H
  C228     1.0000 0.06350  0.62990  0.12520  Biso   1.000  C
  H145     1.0000 0.09170  0.61760  0.10980  Biso   1.000  H
  C229     1.0000 0.18950  0.70440  0.98940  Biso   1.000  C
  H146     1.0000 0.14960  0.66990  0.00330  Biso   1.000  H
  C230     1.0000 0.20040  0.69320  0.95000  Biso   1.000  C
  H147     1.0000 0.16720  0.65210  0.93660  Biso   1.000  H
  O52      1.0000 0.88970  0.48110  0.18140  Biso   1.000  O
  C231     1.0000 0.90500  0.54130  0.18680  Biso   1.000  C
  O53      1.0000 0.86460  0.55460  0.20450  Biso   1.000  O
  C232     1.0000 0.29140  0.81290  0.94390  Biso   1.000  C
  H148     1.0000 0.33390  0.84550  0.93140  Biso   1.000  H
  C233     1.0000 0.27630  0.82840  0.98170  Biso   1.000  C
  H149     1.0000 0.30800  0.87160  0.99380  Biso   1.000  H
  O54      1.0000 0.86630  0.50800  0.19650  Biso   1.000  O
  C234     1.0000 0.88120  0.56770  0.19180  Biso   1.000  C
  O55      1.0000 0.84040  0.58840  0.20180  Biso   1.000  O
  C235     1.0000 0.94130  0.61750  0.16620  Biso   1.000  C
  C236     1.0000 0.97040  0.59130  0.14010  Biso   1.000  C
  H150     1.0000 0.95000  0.54250  0.13650  Biso   1.000  H
  C237     1.0000 0.02930  0.63650  0.11920  Biso   1.000  C
  H151     1.0000 0.05020  0.61790  0.10200  Biso   1.000  H
  C238     1.0000 0.02620  0.73350  0.14750  Biso   1.000  C
  H152     1.0000 0.04370  0.78210  0.14990  Biso   1.000  H
  C239     1.0000 0.96830  0.68810  0.16880  Biso   1.000  C
  H153     1.0000 0.94620  0.70570  0.18580  Biso   1.000  H
  C240     1.0000 0.05990  0.70920  0.12230  Biso   1.000  C
  C241     1.0000 0.12750  0.76230  0.10230  Biso   1.000  C
  C242     1.0000 0.14110  0.74930  0.06340  Biso   1.000  C
  H154     1.0000 0.10880  0.70770  0.05010  Biso   1.000  H
  O56      1.0000 0.45310  0.67690  0.86974  Biso   1.000  O
  C243     1.0000 0.57580  0.99760  0.14200  Biso   1.000  C
  H155     1.0000 0.54450  0.01420  0.13700  Biso   1.000  H
  C244     1.0000 0.63340  0.03300  0.16660  Biso   1.000  C
  C245     1.0000 0.60040  0.85210  0.10920  Biso   1.000  C
  C246     1.0000 0.61530  0.91620  0.13060  Biso   1.000  C
  C247     1.0000 0.57260  0.83930  0.07040  Biso   1.000  C
  H156     1.0000 0.56700  0.87390  0.05680  Biso   1.000  H
  C248     1.0000 0.67910  0.01000  0.17550  Biso   1.000  C
  H157     1.0000 0.71600  0.03510  0.19400  Biso   1.000  H
  C249     1.0000 0.67120  0.94980  0.15740  Biso   1.000  C
  H158     1.0000 0.70200  0.93280  0.16290  Biso   1.000  H
  C250     1.0000 0.56640  0.93650  0.12520  Biso   1.000  C
  H159     1.0000 0.52590  0.90830  0.10980  Biso   1.000  H
  C251     1.0000 0.51490  0.81050  0.98940  Biso   1.000  C
  H160     1.0000 0.52030  0.85040  0.00330  Biso   1.000  H
  C252     1.0000 0.49280  0.79960  0.95000  Biso   1.000  C
  H161     1.0000 0.48490  0.83280  0.93660  Biso   1.000  H
  O57      1.0000 0.59140  0.11030  0.18140  Biso   1.000  O
  C253     1.0000 0.63630  0.09500  0.18680  Biso   1.000  C
  O58      1.0000 0.69000  0.13540  0.20450  Biso   1.000  O
  C254     1.0000 0.52150  0.70860  0.94390  Biso   1.000  C
  H162     1.0000 0.51160  0.66610  0.93140  Biso   1.000  H
  C255     1.0000 0.55210  0.72370  0.98170  Biso   1.000  C
  H163     1.0000 0.56360  0.69200  0.99380  Biso   1.000  H
  O59      1.0000 0.64170  0.13370  0.19650  Biso   1.000  O
  C256     1.0000 0.68650  0.11880  0.19180  Biso   1.000  C
  O60      1.0000 0.74800  0.15960  0.20180  Biso   1.000  O
  C257     1.0000 0.67620  0.05870  0.16620  Biso   1.000  C
  C258     1.0000 0.62090  0.02960  0.14010  Biso   1.000  C
  H164     1.0000 0.59250  0.05000  0.13650  Biso   1.000  H
  C259     1.0000 0.60720  0.97070  0.11920  Biso   1.000  C
  H165     1.0000 0.56770  0.94980  0.10200  Biso   1.000  H
  C260     1.0000 0.70730  0.97380  0.14750  Biso   1.000  C
  H166     1.0000 0.73840  0.95630  0.14990  Biso   1.000  H
  C261     1.0000 0.71980  0.03170  0.16880  Biso   1.000  C
  H167     1.0000 0.75950  0.05380  0.18580  Biso   1.000  H
  C262     1.0000 0.64930  0.94010  0.12230  Biso   1.000  C
  C263     1.0000 0.63480  0.87250  0.10230  Biso   1.000  C
  C264     1.0000 0.60820  0.85890  0.06340  Biso   1.000  C
  H168     1.0000 0.59890  0.89120  0.05010  Biso   1.000  H
  O61      1.0000 0.54690  0.22380  0.36974  Biso   1.000  O
  C265     1.0000 0.42420  0.42180  0.64200  Biso   1.000  C
  H169     1.0000 0.45550  0.46970  0.63700  Biso   1.000  H
  C266     1.0000 0.36660  0.39960  0.66660  Biso   1.000  C
  C267     1.0000 0.39960  0.25170  0.60920  Biso   1.000  C
  C268     1.0000 0.38470  0.30090  0.63060  Biso   1.000  C
  C269     1.0000 0.42740  0.26670  0.57040  Biso   1.000  C
  H170     1.0000 0.43300  0.30690  0.55680  Biso   1.000  H
  C270     1.0000 0.32090  0.33090  0.67550  Biso   1.000  C
  H171     1.0000 0.28400  0.31910  0.69400  Biso   1.000  H
  C271     1.0000 0.32880  0.27860  0.65740  Biso   1.000  C
  H172     1.0000 0.29800  0.23080  0.66290  Biso   1.000  H
  C272     1.0000 0.43360  0.37010  0.62520  Biso   1.000  C
  H173     1.0000 0.47410  0.38240  0.60980  Biso   1.000  H
  C273     1.0000 0.48510  0.29560  0.48940  Biso   1.000  C
  H174     1.0000 0.47970  0.33010  0.50330  Biso   1.000  H
  C274     1.0000 0.50720  0.30680  0.45000  Biso   1.000  C
  H175     1.0000 0.51510  0.34790  0.43660  Biso   1.000  H
  O62      1.0000 0.40860  0.51890  0.68140  Biso   1.000  O
  C275     1.0000 0.36370  0.45870  0.68680  Biso   1.000  C
  O63      1.0000 0.31000  0.44540  0.70450  Biso   1.000  O
  C276     1.0000 0.47850  0.18710  0.44390  Biso   1.000  C
  H176     1.0000 0.48840  0.15450  0.43140  Biso   1.000  H
  C277     1.0000 0.44790  0.17160  0.48170  Biso   1.000  C
  H177     1.0000 0.43640  0.12840  0.49380  Biso   1.000  H
  O64      1.0000 0.35830  0.49200  0.69650  Biso   1.000  O
  C278     1.0000 0.31350  0.43230  0.69180  Biso   1.000  C
  O65      1.0000 0.25200  0.41160  0.70180  Biso   1.000  O
  C279     1.0000 0.32380  0.38250  0.66620  Biso   1.000  C
  C280     1.0000 0.37910  0.40870  0.64010  Biso   1.000  C
  H178     1.0000 0.40750  0.45750  0.63650  Biso   1.000  H
  C281     1.0000 0.39280  0.36350  0.61920  Biso   1.000  C
  H179     1.0000 0.43230  0.38210  0.60200  Biso   1.000  H
  C282     1.0000 0.29270  0.26650  0.64750  Biso   1.000  C
  H180     1.0000 0.26160  0.21790  0.64990  Biso   1.000  H
  C283     1.0000 0.28020  0.31190  0.66880  Biso   1.000  C
  H181     1.0000 0.24050  0.29430  0.68580  Biso   1.000  H
  C284     1.0000 0.35070  0.29080  0.62230  Biso   1.000  C
  C285     1.0000 0.36520  0.23770  0.60230  Biso   1.000  C
  C286     1.0000 0.39180  0.25070  0.56340  Biso   1.000  C
  H182     1.0000 0.40110  0.29230  0.55010  Biso   1.000  H
  O66      1.0000 0.77620  0.32310  0.36974  Biso   1.000  O
  C287     1.0000 0.57820  0.00240  0.64200  Biso   1.000  C
  H183     1.0000 0.53030  0.98580  0.63700  Biso   1.000  H
  C288     1.0000 0.60040  0.96700  0.66660  Biso   1.000  C
  C289     1.0000 0.74830  0.14790  0.60920  Biso   1.000  C
  C290     1.0000 0.69910  0.08380  0.63060  Biso   1.000  C
  C291     1.0000 0.73330  0.16070  0.57040  Biso   1.000  C
  H184     1.0000 0.69310  0.12610  0.55680  Biso   1.000  H
  C292     1.0000 0.66910  0.99000  0.67550  Biso   1.000  C
  H185     1.0000 0.68090  0.96490  0.69400  Biso   1.000  H
  C293     1.0000 0.72140  0.05020  0.65740  Biso   1.000  C
  H186     1.0000 0.76920  0.06720  0.66290  Biso   1.000  H
  C294     1.0000 0.62990  0.06350  0.62520  Biso   1.000  C
  H187     1.0000 0.61760  0.09170  0.60980  Biso   1.000  H
  C295     1.0000 0.70440  0.18950  0.48940  Biso   1.000  C
  H188     1.0000 0.66990  0.14960  0.50330  Biso   1.000  H
  C296     1.0000 0.69320  0.20040  0.45000  Biso   1.000  C
  H189     1.0000 0.65210  0.16720  0.43660  Biso   1.000  H
  O67      1.0000 0.48110  0.88970  0.68140  Biso   1.000  O
  C297     1.0000 0.54130  0.90500  0.68680  Biso   1.000  C
  O68      1.0000 0.55460  0.86460  0.70450  Biso   1.000  O
  C298     1.0000 0.81290  0.29140  0.44390  Biso   1.000  C
  H190     1.0000 0.84550  0.33390  0.43140  Biso   1.000  H
  C299     1.0000 0.82840  0.27630  0.48170  Biso   1.000  C
  H191     1.0000 0.87160  0.30800  0.49380  Biso   1.000  H
  O69      1.0000 0.50800  0.86630  0.69650  Biso   1.000  O
  C300     1.0000 0.56770  0.88120  0.69180  Biso   1.000  C
  O70      1.0000 0.58840  0.84040  0.70180  Biso   1.000  O
  C301     1.0000 0.61750  0.94130  0.66620  Biso   1.000  C
  C302     1.0000 0.59130  0.97040  0.64010  Biso   1.000  C
  H192     1.0000 0.54250  0.95000  0.63650  Biso   1.000  H
  C303     1.0000 0.63650  0.02930  0.61920  Biso   1.000  C
  H193     1.0000 0.61790  0.05020  0.60200  Biso   1.000  H
  C304     1.0000 0.73350  0.02620  0.64750  Biso   1.000  C
  H194     1.0000 0.78210  0.04370  0.64990  Biso   1.000  H
  C305     1.0000 0.68810  0.96830  0.66880  Biso   1.000  C
  H195     1.0000 0.70570  0.94620  0.68580  Biso   1.000  H
  C306     1.0000 0.70920  0.05990  0.62230  Biso   1.000  C
  C307     1.0000 0.76230  0.12750  0.60230  Biso   1.000  C
  C308     1.0000 0.74930  0.14110  0.56340  Biso   1.000  C
  H196     1.0000 0.70770  0.10880  0.55010  Biso   1.000  H
  O71      1.0000 0.67690  0.45310  0.36974  Biso   1.000  O
  C309     1.0000 0.99760  0.57580  0.64200  Biso   1.000  C
  H197     1.0000 0.01420  0.54450  0.63700  Biso   1.000  H
  C310     1.0000 0.03300  0.63340  0.66660  Biso   1.000  C
  C311     1.0000 0.85210  0.60040  0.60920  Biso   1.000  C
  C312     1.0000 0.91620  0.61530  0.63060  Biso   1.000  C
  C313     1.0000 0.83930  0.57260  0.57040  Biso   1.000  C
  H198     1.0000 0.87390  0.56700  0.55680  Biso   1.000  H
  C314     1.0000 0.01000  0.67910  0.67550  Biso   1.000  C
  H199     1.0000 0.03510  0.71600  0.69400  Biso   1.000  H
  C315     1.0000 0.94980  0.67120  0.65740  Biso   1.000  C
  H200     1.0000 0.93280  0.70200  0.66290  Biso   1.000  H
  C316     1.0000 0.93650  0.56640  0.62520  Biso   1.000  C
  H201     1.0000 0.90830  0.52590  0.60980  Biso   1.000  H
  C317     1.0000 0.81050  0.51490  0.48940  Biso   1.000  C
  H202     1.0000 0.85040  0.52030  0.50330  Biso   1.000  H
  C318     1.0000 0.79960  0.49280  0.45000  Biso   1.000  C
  H203     1.0000 0.83280  0.48490  0.43660  Biso   1.000  H
  O72      1.0000 0.11030  0.59140  0.68140  Biso   1.000  O
  C319     1.0000 0.09500  0.63630  0.68680  Biso   1.000  C
  O73      1.0000 0.13540  0.69000  0.70450  Biso   1.000  O
  C320     1.0000 0.70860  0.52150  0.44390  Biso   1.000  C
  H204     1.0000 0.66610  0.51160  0.43140  Biso   1.000  H
  C321     1.0000 0.72370  0.55210  0.48170  Biso   1.000  C
  H205     1.0000 0.69200  0.56360  0.49380  Biso   1.000  H
  O74      1.0000 0.13370  0.64170  0.69650  Biso   1.000  O
  C322     1.0000 0.11880  0.68650  0.69180  Biso   1.000  C
  O75      1.0000 0.15960  0.74800  0.70180  Biso   1.000  O
  C323     1.0000 0.05870  0.67620  0.66620  Biso   1.000  C
  C324     1.0000 0.02960  0.62090  0.64010  Biso   1.000  C
  H206     1.0000 0.05000  0.59250  0.63650  Biso   1.000  H
  C325     1.0000 0.97070  0.60720  0.61920  Biso   1.000  C
  H207     1.0000 0.94980  0.56770  0.60200  Biso   1.000  H
  C326     1.0000 0.97380  0.70730  0.64750  Biso   1.000  C
  H208     1.0000 0.95630  0.73840  0.64990  Biso   1.000  H
  C327     1.0000 0.03170  0.71980  0.66880  Biso   1.000  C
  H209     1.0000 0.05380  0.75950  0.68580  Biso   1.000  H
  C328     1.0000 0.94010  0.64930  0.62230  Biso   1.000  C
  C329     1.0000 0.87250  0.63480  0.60230  Biso   1.000  C
  C330     1.0000 0.85890  0.60820  0.56340  Biso   1.000  C
  H210     1.0000 0.89120  0.59890  0.55010  Biso   1.000  H
  O76      1.0000 0.45310  0.77620  0.86974  Biso   1.000  O
  C331     1.0000 0.57580  0.57820  0.14200  Biso   1.000  C
  H211     1.0000 0.54450  0.53030  0.13700  Biso   1.000  H
  C332     1.0000 0.63340  0.60040  0.16660  Biso   1.000  C
  C333     1.0000 0.60040  0.74830  0.10920  Biso   1.000  C
  C334     1.0000 0.61530  0.69910  0.13060  Biso   1.000  C
  C335     1.0000 0.57260  0.73330  0.07040  Biso   1.000  C
  H212     1.0000 0.56700  0.69310  0.05680  Biso   1.000  H
  C336     1.0000 0.67910  0.66910  0.17550  Biso   1.000  C
  H213     1.0000 0.71600  0.68090  0.19400  Biso   1.000  H
  C337     1.0000 0.67120  0.72140  0.15740  Biso   1.000  C
  H214     1.0000 0.70200  0.76920  0.16290  Biso   1.000  H
  C338     1.0000 0.56640  0.62990  0.12520  Biso   1.000  C
  H215     1.0000 0.52590  0.61760  0.10980  Biso   1.000  H
  C339     1.0000 0.51490  0.70440  0.98940  Biso   1.000  C
  H216     1.0000 0.52030  0.66990  0.00330  Biso   1.000  H
  C340     1.0000 0.49280  0.69320  0.95000  Biso   1.000  C
  H217     1.0000 0.48490  0.65210  0.93660  Biso   1.000  H
  O77      1.0000 0.59140  0.48110  0.18140  Biso   1.000  O
  C341     1.0000 0.63630  0.54130  0.18680  Biso   1.000  C
  O78      1.0000 0.69000  0.55460  0.20450  Biso   1.000  O
  C342     1.0000 0.52150  0.81290  0.94390  Biso   1.000  C
  H218     1.0000 0.51160  0.84550  0.93140  Biso   1.000  H
  C343     1.0000 0.55210  0.82840  0.98170  Biso   1.000  C
  H219     1.0000 0.56360  0.87160  0.99380  Biso   1.000  H
  O79      1.0000 0.64170  0.50800  0.19650  Biso   1.000  O
  C344     1.0000 0.68650  0.56770  0.19180  Biso   1.000  C
  O80      1.0000 0.74800  0.58840  0.20180  Biso   1.000  O
  C345     1.0000 0.67620  0.61750  0.16620  Biso   1.000  C
  C346     1.0000 0.62090  0.59130  0.14010  Biso   1.000  C
  H220     1.0000 0.59250  0.54250  0.13650  Biso   1.000  H
  C347     1.0000 0.60720  0.63650  0.11920  Biso   1.000  C
  H221     1.0000 0.56770  0.61790  0.10200  Biso   1.000  H
  C348     1.0000 0.70730  0.73350  0.14750  Biso   1.000  C
  H222     1.0000 0.73840  0.78210  0.14990  Biso   1.000  H
  C349     1.0000 0.71980  0.68810  0.16880  Biso   1.000  C
  H223     1.0000 0.75950  0.70570  0.18580  Biso   1.000  H
  C350     1.0000 0.64930  0.70920  0.12230  Biso   1.000  C
  C351     1.0000 0.63480  0.76230  0.10230  Biso   1.000  C
  C352     1.0000 0.60820  0.74930  0.06340  Biso   1.000  C
  H224     1.0000 0.59890  0.70770  0.05010  Biso   1.000  H
  O81      1.0000 0.22380  0.67690  0.86974  Biso   1.000  O
  C353     1.0000 0.42180  0.99760  0.14200  Biso   1.000  C
  H225     1.0000 0.46970  0.01420  0.13700  Biso   1.000  H
  C354     1.0000 0.39960  0.03300  0.16660  Biso   1.000  C
  C355     1.0000 0.25170  0.85210  0.10920  Biso   1.000  C
  C356     1.0000 0.30090  0.91620  0.13060  Biso   1.000  C
  C357     1.0000 0.26670  0.83930  0.07040  Biso   1.000  C
  H226     1.0000 0.30690  0.87390  0.05680  Biso   1.000  H
  C358     1.0000 0.33090  0.01000  0.17550  Biso   1.000  C
  H227     1.0000 0.31910  0.03510  0.19400  Biso   1.000  H
  C359     1.0000 0.27860  0.94980  0.15740  Biso   1.000  C
  H228     1.0000 0.23080  0.93280  0.16290  Biso   1.000  H
  C360     1.0000 0.37010  0.93650  0.12520  Biso   1.000  C
  H229     1.0000 0.38240  0.90830  0.10980  Biso   1.000  H
  C361     1.0000 0.29560  0.81050  0.98940  Biso   1.000  C
  H230     1.0000 0.33010  0.85040  0.00330  Biso   1.000  H
  C362     1.0000 0.30680  0.79960  0.95000  Biso   1.000  C
  H231     1.0000 0.34790  0.83280  0.93660  Biso   1.000  H
  O82      1.0000 0.51890  0.11030  0.18140  Biso   1.000  O
  C363     1.0000 0.45870  0.09500  0.18680  Biso   1.000  C
  O83      1.0000 0.44540  0.13540  0.20450  Biso   1.000  O
  C364     1.0000 0.18710  0.70860  0.94390  Biso   1.000  C
  H232     1.0000 0.15450  0.66610  0.93140  Biso   1.000  H
  C365     1.0000 0.17160  0.72370  0.98170  Biso   1.000  C
  H233     1.0000 0.12840  0.69200  0.99380  Biso   1.000  H
  O84      1.0000 0.49200  0.13370  0.19650  Biso   1.000  O
  C366     1.0000 0.43230  0.11880  0.19180  Biso   1.000  C
  O85      1.0000 0.41160  0.15960  0.20180  Biso   1.000  O
  C367     1.0000 0.38250  0.05870  0.16620  Biso   1.000  C
  C368     1.0000 0.40870  0.02960  0.14010  Biso   1.000  C
  H234     1.0000 0.45750  0.05000  0.13650  Biso   1.000  H
  C369     1.0000 0.36350  0.97070  0.11920  Biso   1.000  C
  H235     1.0000 0.38210  0.94980  0.10200  Biso   1.000  H
  C370     1.0000 0.26650  0.97380  0.14750  Biso   1.000  C
  H236     1.0000 0.21790  0.95630  0.14990  Biso   1.000  H
  C371     1.0000 0.31190  0.03170  0.16880  Biso   1.000  C
  H237     1.0000 0.29430  0.05380  0.18580  Biso   1.000  H
  C372     1.0000 0.29080  0.94010  0.12230  Biso   1.000  C
  C373     1.0000 0.23770  0.87250  0.10230  Biso   1.000  C
  C374     1.0000 0.25070  0.85890  0.06340  Biso   1.000  C
  H238     1.0000 0.29230  0.89120  0.05010  Biso   1.000  H
  O86      1.0000 0.32310  0.54690  0.86974  Biso   1.000  O
  C375     1.0000 0.00240  0.42420  0.14200  Biso   1.000  C
  H239     1.0000 0.98580  0.45550  0.13700  Biso   1.000  H
  C376     1.0000 0.96700  0.36660  0.16660  Biso   1.000  C
  C377     1.0000 0.14790  0.39960  0.10920  Biso   1.000  C
  C378     1.0000 0.08380  0.38470  0.13060  Biso   1.000  C
  C379     1.0000 0.16070  0.42740  0.07040  Biso   1.000  C
  H240     1.0000 0.12610  0.43300  0.05680  Biso   1.000  H
  C380     1.0000 0.99000  0.32090  0.17550  Biso   1.000  C
  H241     1.0000 0.96490  0.28400  0.19400  Biso   1.000  H
  C381     1.0000 0.05020  0.32880  0.15740  Biso   1.000  C
  H242     1.0000 0.06720  0.29800  0.16290  Biso   1.000  H
  C382     1.0000 0.06350  0.43360  0.12520  Biso   1.000  C
  H243     1.0000 0.09170  0.47410  0.10980  Biso   1.000  H
  C383     1.0000 0.18950  0.48510  0.98940  Biso   1.000  C
  H244     1.0000 0.14960  0.47970  0.00330  Biso   1.000  H
  C384     1.0000 0.20040  0.50720  0.95000  Biso   1.000  C
  H245     1.0000 0.16720  0.51510  0.93660  Biso   1.000  H
  O87      1.0000 0.88970  0.40860  0.18140  Biso   1.000  O
  C385     1.0000 0.90500  0.36370  0.18680  Biso   1.000  C
  O88      1.0000 0.86460  0.31000  0.20450  Biso   1.000  O
  C386     1.0000 0.29140  0.47850  0.94390  Biso   1.000  C
  H246     1.0000 0.33390  0.48840  0.93140  Biso   1.000  H
  C387     1.0000 0.27630  0.44790  0.98170  Biso   1.000  C
  H247     1.0000 0.30800  0.43640  0.99380  Biso   1.000  H
  O89      1.0000 0.86630  0.35830  0.19650  Biso   1.000  O
  C388     1.0000 0.88120  0.31350  0.19180  Biso   1.000  C
  O90      1.0000 0.84040  0.25200  0.20180  Biso   1.000  O
  C389     1.0000 0.94130  0.32380  0.16620  Biso   1.000  C
  C390     1.0000 0.97040  0.37910  0.14010  Biso   1.000  C
  H248     1.0000 0.95000  0.40750  0.13650  Biso   1.000  H
  C391     1.0000 0.02930  0.39280  0.11920  Biso   1.000  C
  H249     1.0000 0.05020  0.43230  0.10200  Biso   1.000  H
  C392     1.0000 0.02620  0.29270  0.14750  Biso   1.000  C
  H250     1.0000 0.04370  0.26160  0.14990  Biso   1.000  H
  C393     1.0000 0.96830  0.28020  0.16880  Biso   1.000  C
  H251     1.0000 0.94620  0.24050  0.18580  Biso   1.000  H
  C394     1.0000 0.05990  0.35070  0.12230  Biso   1.000  C
  C395     1.0000 0.12750  0.36520  0.10230  Biso   1.000  C
  C396     1.0000 0.14110  0.39180  0.06340  Biso   1.000  C
  H252     1.0000 0.10880  0.40110  0.05010  Biso   1.000  H
  O91      1.0000 0.22380  0.54690  0.63026  Biso   1.000  O
  C397     1.0000 0.42180  0.42420  0.35800  Biso   1.000  C
  H253     1.0000 0.46970  0.45550  0.36300  Biso   1.000  H
  C398     1.0000 0.39960  0.36660  0.33340  Biso   1.000  C
  C399     1.0000 0.25170  0.39960  0.39080  Biso   1.000  C
  C400     1.0000 0.30090  0.38470  0.36940  Biso   1.000  C
  C401     1.0000 0.26670  0.42740  0.42960  Biso   1.000  C
  H254     1.0000 0.30690  0.43300  0.44320  Biso   1.000  H
  C402     1.0000 0.33090  0.32090  0.32450  Biso   1.000  C
  H255     1.0000 0.31910  0.28400  0.30600  Biso   1.000  H
  C403     1.0000 0.27860  0.32880  0.34260  Biso   1.000  C
  H256     1.0000 0.23080  0.29800  0.33710  Biso   1.000  H
  C404     1.0000 0.37010  0.43360  0.37480  Biso   1.000  C
  H257     1.0000 0.38240  0.47410  0.39020  Biso   1.000  H
  C405     1.0000 0.29560  0.48510  0.51060  Biso   1.000  C
  H258     1.0000 0.33010  0.47970  0.49670  Biso   1.000  H
  C406     1.0000 0.30680  0.50720  0.55000  Biso   1.000  C
  H259     1.0000 0.34790  0.51510  0.56340  Biso   1.000  H
  O92      1.0000 0.51890  0.40860  0.31860  Biso   1.000  O
  C407     1.0000 0.45870  0.36370  0.31320  Biso   1.000  C
  O93      1.0000 0.44540  0.31000  0.29550  Biso   1.000  O
  C408     1.0000 0.18710  0.47850  0.55610  Biso   1.000  C
  H260     1.0000 0.15450  0.48840  0.56860  Biso   1.000  H
  C409     1.0000 0.17160  0.44790  0.51830  Biso   1.000  C
  H261     1.0000 0.12840  0.43640  0.50620  Biso   1.000  H
  O94      1.0000 0.49200  0.35830  0.30350  Biso   1.000  O
  C410     1.0000 0.43230  0.31350  0.30820  Biso   1.000  C
  O95      1.0000 0.41160  0.25200  0.29820  Biso   1.000  O
  C411     1.0000 0.38250  0.32380  0.33380  Biso   1.000  C
  C412     1.0000 0.40870  0.37910  0.35990  Biso   1.000  C
  H262     1.0000 0.45750  0.40750  0.36350  Biso   1.000  H
  C413     1.0000 0.36350  0.39280  0.38080  Biso   1.000  C
  H263     1.0000 0.38210  0.43230  0.39800  Biso   1.000  H
  C414     1.0000 0.26650  0.29270  0.35250  Biso   1.000  C
  H264     1.0000 0.21790  0.26160  0.35010  Biso   1.000  H
  C415     1.0000 0.31190  0.28020  0.33120  Biso   1.000  C
  H265     1.0000 0.29430  0.24050  0.31420  Biso   1.000  H
  C416     1.0000 0.29080  0.35070  0.37770  Biso   1.000  C
  C417     1.0000 0.23770  0.36520  0.39770  Biso   1.000  C
  C418     1.0000 0.25070  0.39180  0.43660  Biso   1.000  C
  H266     1.0000 0.29230  0.40110  0.44990  Biso   1.000  H
  O96      1.0000 0.32310  0.77620  0.63026  Biso   1.000  O
  C419     1.0000 0.00240  0.57820  0.35800  Biso   1.000  C
  H267     1.0000 0.98580  0.53030  0.36300  Biso   1.000  H
  C420     1.0000 0.96700  0.60040  0.33340  Biso   1.000  C
  C421     1.0000 0.14790  0.74830  0.39080  Biso   1.000  C
  C422     1.0000 0.08380  0.69910  0.36940  Biso   1.000  C
  C423     1.0000 0.16070  0.73330  0.42960  Biso   1.000  C
  H268     1.0000 0.12610  0.69310  0.44320  Biso   1.000  H
  C424     1.0000 0.99000  0.66910  0.32450  Biso   1.000  C
  H269     1.0000 0.96490  0.68090  0.30600  Biso   1.000  H
  C425     1.0000 0.05020  0.72140  0.34260  Biso   1.000  C
  H270     1.0000 0.06720  0.76920  0.33710  Biso   1.000  H
  C426     1.0000 0.06350  0.62990  0.37480  Biso   1.000  C
  H271     1.0000 0.09170  0.61760  0.39020  Biso   1.000  H
  C427     1.0000 0.18950  0.70440  0.51060  Biso   1.000  C
  H272     1.0000 0.14960  0.66990  0.49670  Biso   1.000  H
  C428     1.0000 0.20040  0.69320  0.55000  Biso   1.000  C
  H273     1.0000 0.16720  0.65210  0.56340  Biso   1.000  H
  O97      1.0000 0.88970  0.48110  0.31860  Biso   1.000  O
  C429     1.0000 0.90500  0.54130  0.31320  Biso   1.000  C
  O98      1.0000 0.86460  0.55460  0.29550  Biso   1.000  O
  C430     1.0000 0.29140  0.81290  0.55610  Biso   1.000  C
  H274     1.0000 0.33390  0.84550  0.56860  Biso   1.000  H
  C431     1.0000 0.27630  0.82840  0.51830  Biso   1.000  C
  H275     1.0000 0.30800  0.87160  0.50620  Biso   1.000  H
  O99      1.0000 0.86630  0.50800  0.30350  Biso   1.000  O
  C432     1.0000 0.88120  0.56770  0.30820  Biso   1.000  C
  O100     1.0000 0.84040  0.58840  0.29820  Biso   1.000  O
  C433     1.0000 0.94130  0.61750  0.33380  Biso   1.000  C
  C434     1.0000 0.97040  0.59130  0.35990  Biso   1.000  C
  H276     1.0000 0.95000  0.54250  0.36350  Biso   1.000  H
  C435     1.0000 0.02930  0.63650  0.38080  Biso   1.000  C
  H277     1.0000 0.05020  0.61790  0.39800  Biso   1.000  H
  C436     1.0000 0.02620  0.73350  0.35250  Biso   1.000  C
  H278     1.0000 0.04370  0.78210  0.35010  Biso   1.000  H
  C437     1.0000 0.96830  0.68810  0.33120  Biso   1.000  C
  H279     1.0000 0.94620  0.70570  0.31420  Biso   1.000  H
  C438     1.0000 0.05990  0.70920  0.37770  Biso   1.000  C
  C439     1.0000 0.12750  0.76230  0.39770  Biso   1.000  C
  C440     1.0000 0.14110  0.74930  0.43660  Biso   1.000  C
  H280     1.0000 0.10880  0.70770  0.44990  Biso   1.000  H
  O101     1.0000 0.45310  0.67690  0.63026  Biso   1.000  O
  C441     1.0000 0.57580  0.99760  0.35800  Biso   1.000  C
  H281     1.0000 0.54450  0.01420  0.36300  Biso   1.000  H
  C442     1.0000 0.63340  0.03300  0.33340  Biso   1.000  C
  C443     1.0000 0.60040  0.85210  0.39080  Biso   1.000  C
  C444     1.0000 0.61530  0.91620  0.36940  Biso   1.000  C
  C445     1.0000 0.57260  0.83930  0.42960  Biso   1.000  C
  H282     1.0000 0.56700  0.87390  0.44320  Biso   1.000  H
  C446     1.0000 0.67910  0.01000  0.32450  Biso   1.000  C
  H283     1.0000 0.71600  0.03510  0.30600  Biso   1.000  H
  C447     1.0000 0.67120  0.94980  0.34260  Biso   1.000  C
  H284     1.0000 0.70200  0.93280  0.33710  Biso   1.000  H
  C448     1.0000 0.56640  0.93650  0.37480  Biso   1.000  C
  H285     1.0000 0.52590  0.90830  0.39020  Biso   1.000  H
  C449     1.0000 0.51490  0.81050  0.51060  Biso   1.000  C
  H286     1.0000 0.52030  0.85040  0.49670  Biso   1.000  H
  C450     1.0000 0.49280  0.79960  0.55000  Biso   1.000  C
  H287     1.0000 0.48490  0.83280  0.56340  Biso   1.000  H
  O102     1.0000 0.59140  0.11030  0.31860  Biso   1.000  O
  C451     1.0000 0.63630  0.09500  0.31320  Biso   1.000  C
  O103     1.0000 0.69000  0.13540  0.29550  Biso   1.000  O
  C452     1.0000 0.52150  0.70860  0.55610  Biso   1.000  C
  H288     1.0000 0.51160  0.66610  0.56860  Biso   1.000  H
  C453     1.0000 0.55210  0.72370  0.51830  Biso   1.000  C
  H289     1.0000 0.56360  0.69200  0.50620  Biso   1.000  H
  O104     1.0000 0.64170  0.13370  0.30350  Biso   1.000  O
  C454     1.0000 0.68650  0.11880  0.30820  Biso   1.000  C
  O105     1.0000 0.74800  0.15960  0.29820  Biso   1.000  O
  C455     1.0000 0.67620  0.05870  0.33380  Biso   1.000  C
  C456     1.0000 0.62090  0.02960  0.35990  Biso   1.000  C
  H290     1.0000 0.59250  0.05000  0.36350  Biso   1.000  H
  C457     1.0000 0.60720  0.97070  0.38080  Biso   1.000  C
  H291     1.0000 0.56770  0.94980  0.39800  Biso   1.000  H
  C458     1.0000 0.70730  0.97380  0.35250  Biso   1.000  C
  H292     1.0000 0.73840  0.95630  0.35010  Biso   1.000  H
  C459     1.0000 0.71980  0.03170  0.33120  Biso   1.000  C
  H293     1.0000 0.75950  0.05380  0.31420  Biso   1.000  H
  C460     1.0000 0.64930  0.94010  0.37770  Biso   1.000  C
  C461     1.0000 0.63480  0.87250  0.39770  Biso   1.000  C
  C462     1.0000 0.60820  0.85890  0.43660  Biso   1.000  C
  H294     1.0000 0.59890  0.89120  0.44990  Biso   1.000  H
  O106     1.0000 0.77620  0.45310  0.13026  Biso   1.000  O
  C463     1.0000 0.57820  0.57580  0.85800  Biso   1.000  C
  H295     1.0000 0.53030  0.54450  0.86300  Biso   1.000  H
  C464     1.0000 0.60040  0.63340  0.83340  Biso   1.000  C
  C465     1.0000 0.74830  0.60040  0.89080  Biso   1.000  C
  C466     1.0000 0.69910  0.61530  0.86940  Biso   1.000  C
  C467     1.0000 0.73330  0.57260  0.92960  Biso   1.000  C
  H296     1.0000 0.69310  0.56700  0.94320  Biso   1.000  H
  C468     1.0000 0.66910  0.67910  0.82450  Biso   1.000  C
  H297     1.0000 0.68090  0.71600  0.80600  Biso   1.000  H
  C469     1.0000 0.72140  0.67120  0.84260  Biso   1.000  C
  H298     1.0000 0.76920  0.70200  0.83710  Biso   1.000  H
  C470     1.0000 0.62990  0.56640  0.87480  Biso   1.000  C
  H299     1.0000 0.61760  0.52590  0.89020  Biso   1.000  H
  C471     1.0000 0.70440  0.51490  0.01060  Biso   1.000  C
  H300     1.0000 0.66990  0.52030  0.99670  Biso   1.000  H
  C472     1.0000 0.69320  0.49280  0.05000  Biso   1.000  C
  H301     1.0000 0.65210  0.48490  0.06340  Biso   1.000  H
  O107     1.0000 0.48110  0.59140  0.81860  Biso   1.000  O
  C473     1.0000 0.54130  0.63630  0.81320  Biso   1.000  C
  O108     1.0000 0.55460  0.69000  0.79550  Biso   1.000  O
  C474     1.0000 0.81290  0.52150  0.05610  Biso   1.000  C
  H302     1.0000 0.84550  0.51160  0.06860  Biso   1.000  H
  C475     1.0000 0.82840  0.55210  0.01830  Biso   1.000  C
  H303     1.0000 0.87160  0.56360  0.00620  Biso   1.000  H
  O109     1.0000 0.50800  0.64170  0.80350  Biso   1.000  O
  C476     1.0000 0.56770  0.68650  0.80820  Biso   1.000  C
  O110     1.0000 0.58840  0.74800  0.79820  Biso   1.000  O
  C477     1.0000 0.61750  0.67620  0.83380  Biso   1.000  C
  C478     1.0000 0.59130  0.62090  0.85990  Biso   1.000  C
  H304     1.0000 0.54250  0.59250  0.86350  Biso   1.000  H
  C479     1.0000 0.63650  0.60720  0.88080  Biso   1.000  C
  H305     1.0000 0.61790  0.56770  0.89800  Biso   1.000  H
  C480     1.0000 0.73350  0.70730  0.85250  Biso   1.000  C
  H306     1.0000 0.78210  0.73840  0.85010  Biso   1.000  H
  C481     1.0000 0.68810  0.71980  0.83120  Biso   1.000  C
  H307     1.0000 0.70570  0.75950  0.81420  Biso   1.000  H
  C482     1.0000 0.70920  0.64930  0.87770  Biso   1.000  C
  C483     1.0000 0.76230  0.63480  0.89770  Biso   1.000  C
  C484     1.0000 0.74930  0.60820  0.93660  Biso   1.000  C
  H308     1.0000 0.70770  0.59890  0.94990  Biso   1.000  H
  O111     1.0000 0.67690  0.22380  0.13026  Biso   1.000  O
  C485     1.0000 0.99760  0.42180  0.85800  Biso   1.000  C
  H309     1.0000 0.01420  0.46970  0.86300  Biso   1.000  H
  C486     1.0000 0.03300  0.39960  0.83340  Biso   1.000  C
  C487     1.0000 0.85210  0.25170  0.89080  Biso   1.000  C
  C488     1.0000 0.91620  0.30090  0.86940  Biso   1.000  C
  C489     1.0000 0.83930  0.26670  0.92960  Biso   1.000  C
  H310     1.0000 0.87390  0.30690  0.94320  Biso   1.000  H
  C490     1.0000 0.01000  0.33090  0.82450  Biso   1.000  C
  H311     1.0000 0.03510  0.31910  0.80600  Biso   1.000  H
  C491     1.0000 0.94980  0.27860  0.84260  Biso   1.000  C
  H312     1.0000 0.93280  0.23080  0.83710  Biso   1.000  H
  C492     1.0000 0.93650  0.37010  0.87480  Biso   1.000  C
  H313     1.0000 0.90830  0.38240  0.89020  Biso   1.000  H
  C493     1.0000 0.81050  0.29560  0.01060  Biso   1.000  C
  H314     1.0000 0.85040  0.33010  0.99670  Biso   1.000  H
  C494     1.0000 0.79960  0.30680  0.05000  Biso   1.000  C
  H315     1.0000 0.83280  0.34790  0.06340  Biso   1.000  H
  O112     1.0000 0.11030  0.51890  0.81860  Biso   1.000  O
  C495     1.0000 0.09500  0.45870  0.81320  Biso   1.000  C
  O113     1.0000 0.13540  0.44540  0.79550  Biso   1.000  O
  C496     1.0000 0.70860  0.18710  0.05610  Biso   1.000  C
  H316     1.0000 0.66610  0.15450  0.06860  Biso   1.000  H
  C497     1.0000 0.72370  0.17160  0.01830  Biso   1.000  C
  H317     1.0000 0.69200  0.12840  0.00620  Biso   1.000  H
  O114     1.0000 0.13370  0.49200  0.80350  Biso   1.000  O
  C498     1.0000 0.11880  0.43230  0.80820  Biso   1.000  C
  O115     1.0000 0.15960  0.41160  0.79820  Biso   1.000  O
  C499     1.0000 0.05870  0.38250  0.83380  Biso   1.000  C
  C500     1.0000 0.02960  0.40870  0.85990  Biso   1.000  C
  H318     1.0000 0.05000  0.45750  0.86350  Biso   1.000  H
  C501     1.0000 0.97070  0.36350  0.88080  Biso   1.000  C
  H319     1.0000 0.94980  0.38210  0.89800  Biso   1.000  H
  C502     1.0000 0.97380  0.26650  0.85250  Biso   1.000  C
  H320     1.0000 0.95630  0.21790  0.85010  Biso   1.000  H
  C503     1.0000 0.03170  0.31190  0.83120  Biso   1.000  C
  H321     1.0000 0.05380  0.29430  0.81420  Biso   1.000  H
  C504     1.0000 0.94010  0.29080  0.87770  Biso   1.000  C
  C505     1.0000 0.87250  0.23770  0.89770  Biso   1.000  C
  C506     1.0000 0.85890  0.25070  0.93660  Biso   1.000  C
  H322     1.0000 0.89120  0.29230  0.94990  Biso   1.000  H
  O116     1.0000 0.54690  0.32310  0.13026  Biso   1.000  O
  C507     1.0000 0.42420  0.00240  0.85800  Biso   1.000  C
  H323     1.0000 0.45550  0.98580  0.86300  Biso   1.000  H
  C508     1.0000 0.36660  0.96700  0.83340  Biso   1.000  C
  C509     1.0000 0.39960  0.14790  0.89080  Biso   1.000  C
  C510     1.0000 0.38470  0.08380  0.86940  Biso   1.000  C
  C511     1.0000 0.42740  0.16070  0.92960  Biso   1.000  C
  H324     1.0000 0.43300  0.12610  0.94320  Biso   1.000  H
  C512     1.0000 0.32090  0.99000  0.82450  Biso   1.000  C
  H325     1.0000 0.28400  0.96490  0.80600  Biso   1.000  H
  C513     1.0000 0.32880  0.05020  0.84260  Biso   1.000  C
  H326     1.0000 0.29800  0.06720  0.83710  Biso   1.000  H
  C514     1.0000 0.43360  0.06350  0.87480  Biso   1.000  C
  H327     1.0000 0.47410  0.09170  0.89020  Biso   1.000  H
  C515     1.0000 0.48510  0.18950  0.01060  Biso   1.000  C
  H328     1.0000 0.47970  0.14960  0.99670  Biso   1.000  H
  C516     1.0000 0.50720  0.20040  0.05000  Biso   1.000  C
  H329     1.0000 0.51510  0.16720  0.06340  Biso   1.000  H
  O117     1.0000 0.40860  0.88970  0.81860  Biso   1.000  O
  C517     1.0000 0.36370  0.90500  0.81320  Biso   1.000  C
  O118     1.0000 0.31000  0.86460  0.79550  Biso   1.000  O
  C518     1.0000 0.47850  0.29140  0.05610  Biso   1.000  C
  H330     1.0000 0.48840  0.33390  0.06860  Biso   1.000  H
  C519     1.0000 0.44790  0.27630  0.01830  Biso   1.000  C
  H331     1.0000 0.43640  0.30800  0.00620  Biso   1.000  H
  O119     1.0000 0.35830  0.86630  0.80350  Biso   1.000  O
  C520     1.0000 0.31350  0.88120  0.80820  Biso   1.000  C
  O120     1.0000 0.25200  0.84040  0.79820  Biso   1.000  O
  C521     1.0000 0.32380  0.94130  0.83380  Biso   1.000  C
  C522     1.0000 0.37910  0.97040  0.85990  Biso   1.000  C
  H332     1.0000 0.40750  0.95000  0.86350  Biso   1.000  H
  C523     1.0000 0.39280  0.02930  0.88080  Biso   1.000  C
  H333     1.0000 0.43230  0.05020  0.89800  Biso   1.000  H
  C524     1.0000 0.29270  0.02620  0.85250  Biso   1.000  C
  H334     1.0000 0.26160  0.04370  0.85010  Biso   1.000  H
  C525     1.0000 0.28020  0.96830  0.83120  Biso   1.000  C
  H335     1.0000 0.24050  0.94620  0.81420  Biso   1.000  H
  C526     1.0000 0.35070  0.05990  0.87770  Biso   1.000  C
  C527     1.0000 0.36520  0.12750  0.89770  Biso   1.000  C
  C528     1.0000 0.39180  0.14110  0.93660  Biso   1.000  C
  H336     1.0000 0.40110  0.10880  0.94990  Biso   1.000  H
  Y1       1.0000 0.60919  0.39081  0.31539  Biso   1.000  Y
  Y2       1.0000 0.60919  0.21838  0.31539  Biso   1.000  Y
  Y3       1.0000 0.78162  0.39081  0.31539  Biso   1.000  Y
  Y4       1.0000 0.39081  0.60919  0.81539  Biso   1.000  Y
  Y5       1.0000 0.39081  0.78162  0.81539  Biso   1.000  Y
  Y6       1.0000 0.21838  0.60919  0.81539  Biso   1.000  Y
  Y7       1.0000 0.39081  0.60919  0.68461  Biso   1.000  Y
  Y8       1.0000 0.21838  0.60919  0.68461  Biso   1.000  Y
  Y9       1.0000 0.39081  0.78162  0.68461  Biso   1.000  Y
  Y10      1.0000 0.60919  0.39081  0.18461  Biso   1.000  Y
  Y11      1.0000 0.78162  0.39081  0.18461  Biso   1.000  Y
  Y12      1.0000 0.60919  0.21838  0.18461  Biso   1.000  Y
  O121     1.0000 0.59994  0.40006  0.25000  Biso   1.000  O
  O122     1.0000 0.59994  0.19988  0.25000  Biso   1.000  O
  O123     1.0000 0.80012  0.40006  0.25000  Biso   1.000  O
  O124     1.0000 0.40006  0.59994  0.75000  Biso   1.000  O
  O125     1.0000 0.40006  0.80012  0.75000  Biso   1.000  O
  O126     1.0000 0.19988  0.59994  0.75000  Biso   1.000  O
  O127     1.0000 0.72255  0.44510  0.29076  Biso   1.000  O
  O128     1.0000 0.55490  0.27745  0.29076  Biso   1.000  O
  O129     1.0000 0.72255  0.27745  0.29076  Biso   1.000  O
  O130     1.0000 0.27745  0.55490  0.79076  Biso   1.000  O
  O131     1.0000 0.44510  0.72255  0.79076  Biso   1.000  O
  O132     1.0000 0.27745  0.72255  0.79076  Biso   1.000  O
  O133     1.0000 0.44510  0.72255  0.70924  Biso   1.000  O
  O134     1.0000 0.27745  0.55490  0.70924  Biso   1.000  O
  O135     1.0000 0.27745  0.72255  0.70924  Biso   1.000  O
  O136     1.0000 0.55490  0.27745  0.20924  Biso   1.000  O
  O137     1.0000 0.72255  0.44510  0.20924  Biso   1.000  O
  O138     1.0000 0.72255  0.27745  0.20924  Biso   1.000  O
  C529     1.0000 0.48210  0.74105  0.56990  Biso   1.000  C
  C530     1.0000 0.45770  0.72885  0.61260  Biso   1.000  C
  C531     1.0000 0.61910  0.80955  0.37090  Biso   1.000  C
  H337     1.0000 0.64280  0.82140  0.34580  Biso   1.000  H
  C532     1.0000 0.55320  0.77660  0.44860  Biso   1.000  C
  C533     1.0000 0.52930  0.76465  0.49100  Biso   1.000  C
  C534     1.0000 0.59500  0.79750  0.45610  Biso   1.000  C
  C535     1.0000 0.56640  0.78320  0.49780  Biso   1.000  C
  C536     1.0000 0.64930  0.82465  0.37920  Biso   1.000  C
  H338     1.0000 0.66960  0.83480  0.35310  Biso   1.000  H
  C537     1.0000 0.50460  0.75230  0.57640  Biso   1.000  C
  C538     1.0000 0.47280  0.73640  0.61690  Biso   1.000  C
  C539     1.0000 0.25895  0.74105  0.56990  Biso   1.000  C
  C540     1.0000 0.27115  0.72885  0.61260  Biso   1.000  C
  C541     1.0000 0.19045  0.80955  0.37090  Biso   1.000  C
  H339     1.0000 0.17860  0.82140  0.34580  Biso   1.000  H
  C542     1.0000 0.22340  0.77660  0.44860  Biso   1.000  C
  C543     1.0000 0.23535  0.76465  0.49100  Biso   1.000  C
  C544     1.0000 0.20250  0.79750  0.45610  Biso   1.000  C
  C545     1.0000 0.21680  0.78320  0.49780  Biso   1.000  C
  C546     1.0000 0.17535  0.82465  0.37920  Biso   1.000  C
  H340     1.0000 0.16520  0.83480  0.35310  Biso   1.000  H
  C547     1.0000 0.24770  0.75230  0.57640  Biso   1.000  C
  C548     1.0000 0.26360  0.73640  0.61690  Biso   1.000  C
  C549     1.0000 0.25895  0.51790  0.56990  Biso   1.000  C
  C550     1.0000 0.27115  0.54230  0.61260  Biso   1.000  C
  C551     1.0000 0.19045  0.38090  0.37090  Biso   1.000  C
  H341     1.0000 0.17860  0.35720  0.34580  Biso   1.000  H
  C552     1.0000 0.22340  0.44680  0.44860  Biso   1.000  C
  C553     1.0000 0.23535  0.47070  0.49100  Biso   1.000  C
  C554     1.0000 0.20250  0.40500  0.45610  Biso   1.000  C
  C555     1.0000 0.21680  0.43360  0.49780  Biso   1.000  C
  C556     1.0000 0.17535  0.35070  0.37920  Biso   1.000  C
  H342     1.0000 0.16520  0.33040  0.35310  Biso   1.000  H
  C557     1.0000 0.24770  0.49540  0.57640  Biso   1.000  C
  C558     1.0000 0.26360  0.52720  0.61690  Biso   1.000  C
  C559     1.0000 0.51790  0.25895  0.06990  Biso   1.000  C
  C560     1.0000 0.54230  0.27115  0.11260  Biso   1.000  C
  C561     1.0000 0.38090  0.19045  0.87090  Biso   1.000  C
  H343     1.0000 0.35720  0.17860  0.84580  Biso   1.000  H
  C562     1.0000 0.44680  0.22340  0.94860  Biso   1.000  C
  C563     1.0000 0.47070  0.23535  0.99100  Biso   1.000  C
  C564     1.0000 0.40500  0.20250  0.95610  Biso   1.000  C
  C565     1.0000 0.43360  0.21680  0.99780  Biso   1.000  C
  C566     1.0000 0.35070  0.17535  0.87920  Biso   1.000  C
  H344     1.0000 0.33040  0.16520  0.85310  Biso   1.000  H
  C567     1.0000 0.49540  0.24770  0.07640  Biso   1.000  C
  C568     1.0000 0.52720  0.26360  0.11690  Biso   1.000  C
  C569     1.0000 0.74105  0.25895  0.06990  Biso   1.000  C
  C570     1.0000 0.72885  0.27115  0.11260  Biso   1.000  C
  C571     1.0000 0.80955  0.19045  0.87090  Biso   1.000  C
  H345     1.0000 0.82140  0.17860  0.84580  Biso   1.000  H
  C572     1.0000 0.77660  0.22340  0.94860  Biso   1.000  C
  C573     1.0000 0.76465  0.23535  0.99100  Biso   1.000  C
  C574     1.0000 0.79750  0.20250  0.95610  Biso   1.000  C
  C575     1.0000 0.78320  0.21680  0.99780  Biso   1.000  C
  C576     1.0000 0.82465  0.17535  0.87920  Biso   1.000  C
  H346     1.0000 0.83480  0.16520  0.85310  Biso   1.000  H
  C577     1.0000 0.75230  0.24770  0.07640  Biso   1.000  C
  C578     1.0000 0.73640  0.26360  0.11690  Biso   1.000  C
  C579     1.0000 0.74105  0.48210  0.06990  Biso   1.000  C
  C580     1.0000 0.72885  0.45770  0.11260  Biso   1.000  C
  C581     1.0000 0.80955  0.61910  0.87090  Biso   1.000  C
  H347     1.0000 0.82140  0.64280  0.84580  Biso   1.000  H
  C582     1.0000 0.77660  0.55320  0.94860  Biso   1.000  C
  C583     1.0000 0.76465  0.52930  0.99100  Biso   1.000  C
  C584     1.0000 0.79750  0.59500  0.95610  Biso   1.000  C
  C585     1.0000 0.78320  0.56640  0.99780  Biso   1.000  C
  C586     1.0000 0.82465  0.64930  0.87920  Biso   1.000  C
  H348     1.0000 0.83480  0.66960  0.85310  Biso   1.000  H
  C587     1.0000 0.75230  0.50460  0.07640  Biso   1.000  C
  C588     1.0000 0.73640  0.47280  0.11690  Biso   1.000  C
  C589     1.0000 0.74105  0.48210  0.43010  Biso   1.000  C
  C590     1.0000 0.72885  0.45770  0.38740  Biso   1.000  C
  C591     1.0000 0.80955  0.61910  0.62910  Biso   1.000  C
  H349     1.0000 0.82140  0.64280  0.65420  Biso   1.000  H
  C592     1.0000 0.77660  0.55320  0.55140  Biso   1.000  C
  C593     1.0000 0.76465  0.52930  0.50900  Biso   1.000  C
  C594     1.0000 0.79750  0.59500  0.54390  Biso   1.000  C
  C595     1.0000 0.78320  0.56640  0.50220  Biso   1.000  C
  C596     1.0000 0.82465  0.64930  0.62080  Biso   1.000  C
  H350     1.0000 0.83480  0.66960  0.64690  Biso   1.000  H
  C597     1.0000 0.75230  0.50460  0.42360  Biso   1.000  C
  C598     1.0000 0.73640  0.47280  0.38310  Biso   1.000  C
  C599     1.0000 0.74105  0.25895  0.43010  Biso   1.000  C
  C600     1.0000 0.72885  0.27115  0.38740  Biso   1.000  C
  C601     1.0000 0.80955  0.19045  0.62910  Biso   1.000  C
  H351     1.0000 0.82140  0.17860  0.65420  Biso   1.000  H
  C602     1.0000 0.77660  0.22340  0.55140  Biso   1.000  C
  C603     1.0000 0.76465  0.23535  0.50900  Biso   1.000  C
  C604     1.0000 0.79750  0.20250  0.54390  Biso   1.000  C
  C605     1.0000 0.78320  0.21680  0.50220  Biso   1.000  C
  C606     1.0000 0.82465  0.17535  0.62080  Biso   1.000  C
  H352     1.0000 0.83480  0.16520  0.64690  Biso   1.000  H
  C607     1.0000 0.75230  0.24770  0.42360  Biso   1.000  C
  C608     1.0000 0.73640  0.26360  0.38310  Biso   1.000  C
  C609     1.0000 0.51790  0.25895  0.43010  Biso   1.000  C
  C610     1.0000 0.54230  0.27115  0.38740  Biso   1.000  C
  C611     1.0000 0.38090  0.19045  0.62910  Biso   1.000  C
  H353     1.0000 0.35720  0.17860  0.65420  Biso   1.000  H
  C612     1.0000 0.44680  0.22340  0.55140  Biso   1.000  C
  C613     1.0000 0.47070  0.23535  0.50900  Biso   1.000  C
  C614     1.0000 0.40500  0.20250  0.54390  Biso   1.000  C
  C615     1.0000 0.43360  0.21680  0.50220  Biso   1.000  C
  C616     1.0000 0.35070  0.17535  0.62080  Biso   1.000  C
  H354     1.0000 0.33040  0.16520  0.64690  Biso   1.000  H
  C617     1.0000 0.49540  0.24770  0.42360  Biso   1.000  C
  C618     1.0000 0.52720  0.26360  0.38310  Biso   1.000  C
  C619     1.0000 0.25895  0.51790  0.93010  Biso   1.000  C
  C620     1.0000 0.27115  0.54230  0.88740  Biso   1.000  C
  C621     1.0000 0.19045  0.38090  0.12910  Biso   1.000  C
  H355     1.0000 0.17860  0.35720  0.15420  Biso   1.000  H
  C622     1.0000 0.22340  0.44680  0.05140  Biso   1.000  C
  C623     1.0000 0.23535  0.47070  0.00900  Biso   1.000  C
  C624     1.0000 0.20250  0.40500  0.04390  Biso   1.000  C
  C625     1.0000 0.21680  0.43360  0.00220  Biso   1.000  C
  C626     1.0000 0.17535  0.35070  0.12080  Biso   1.000  C
  H356     1.0000 0.16520  0.33040  0.14690  Biso   1.000  H
  C627     1.0000 0.24770  0.49540  0.92360  Biso   1.000  C
  C628     1.0000 0.26360  0.52720  0.88310  Biso   1.000  C
  C629     1.0000 0.25895  0.74105  0.93010  Biso   1.000  C
  C630     1.0000 0.27115  0.72885  0.88740  Biso   1.000  C
  C631     1.0000 0.19045  0.80955  0.12910  Biso   1.000  C
  H357     1.0000 0.17860  0.82140  0.15420  Biso   1.000  H
  C632     1.0000 0.22340  0.77660  0.05140  Biso   1.000  C
  C633     1.0000 0.23535  0.76465  0.00900  Biso   1.000  C
  C634     1.0000 0.20250  0.79750  0.04390  Biso   1.000  C
  C635     1.0000 0.21680  0.78320  0.00220  Biso   1.000  C
  C636     1.0000 0.17535  0.82465  0.12080  Biso   1.000  C
  H358     1.0000 0.16520  0.83480  0.14690  Biso   1.000  H
  C637     1.0000 0.24770  0.75230  0.92360  Biso   1.000  C
  C638     1.0000 0.26360  0.73640  0.88310  Biso   1.000  C
  C639     1.0000 0.48210  0.74105  0.93010  Biso   1.000  C
  C640     1.0000 0.45770  0.72885  0.88740  Biso   1.000  C
  C641     1.0000 0.61910  0.80955  0.12910  Biso   1.000  C
  H359     1.0000 0.64280  0.82140  0.15420  Biso   1.000  H
  C642     1.0000 0.55320  0.77660  0.05140  Biso   1.000  C
  C643     1.0000 0.52930  0.76465  0.00900  Biso   1.000  C
  C644     1.0000 0.59500  0.79750  0.04390  Biso   1.000  C
  C645     1.0000 0.56640  0.78320  0.00220  Biso   1.000  C
  C646     1.0000 0.64930  0.82465  0.12080  Biso   1.000  C
  H360     1.0000 0.66960  0.83480  0.14690  Biso   1.000  H
  C647     1.0000 0.50460  0.75230  0.92360  Biso   1.000  C
  C648     1.0000 0.47280  0.73640  0.88310  Biso   1.000  C
  O139     1.0000 0.66667  0.33333  0.32940  Biso   1.000  O
  O140     1.0000 0.33333  0.66667  0.82940  Biso   1.000  O
  O141     1.0000 0.33333  0.66667  0.67060  Biso   1.000  O
  O142     1.0000 0.66667  0.33333  0.17060  Biso   1.000  O
  Y13      1.0000 0.75910  0.53721  0.25000  Biso   1.000  Y
  Y14      1.0000 0.46279  0.22189  0.25000  Biso   1.000  Y
  Y15      1.0000 0.77811  0.24090  0.25000  Biso   1.000  Y
  Y16      1.0000 0.24090  0.46279  0.75000  Biso   1.000  Y
  Y17      1.0000 0.53721  0.77811  0.75000  Biso   1.000  Y
  Y18      1.0000 0.22189  0.75910  0.75000  Biso   1.000  Y
  Y19      1.0000 0.53721  0.75910  0.75000  Biso   1.000  Y
  Y20      1.0000 0.22189  0.46279  0.75000  Biso   1.000  Y
  Y21      1.0000 0.24090  0.77811  0.75000  Biso   1.000  Y
  Y22      1.0000 0.46279  0.24090  0.25000  Biso   1.000  Y
  Y23      1.0000 0.77811  0.53721  0.25000  Biso   1.000  Y
  Y24      1.0000 0.75910  0.22189  0.25000  Biso   1.000  Y
