data_image0
_cell_length_a       35.2721
_cell_length_b       14.6427
_cell_length_c       31.6037
_cell_angle_alpha    90
_cell_angle_beta     102.029
_cell_angle_gamma    90

_symmetry_space_group_name_H-M    "P 1"
_symmetry_int_tables_number       1

loop_
  _symmetry_equiv_pos_as_xyz
  'x, y, z'

loop_
  _atom_site_label
  _atom_site_occupancy
  _atom_site_fract_x
  _atom_site_fract_y
  _atom_site_fract_z
  _atom_site_thermal_displace_type
  _atom_site_B_iso_or_equiv
  _atom_site_type_symbol
  Zn1      1.0000 0.66972  0.13331  0.52110  Biso   1.000  Zn
  Zn2      1.0000 0.37862  0.88658  0.68180  Biso   1.000  Zn
  Zn3      1.0000 0.08263  0.12215  0.84166  Biso   1.000  Zn
  I1       1.0000 0.72620  0.21740  0.54060  Biso   1.000  I
  I2       1.0000 0.62479  0.14420  0.44520  Biso   1.000  I
  I3       1.0000 0.35476  0.87880  0.75048  Biso   1.000  I
  I4       1.0000 0.40215  0.75577  0.64188  Biso   1.000  I
  Zn4      1.0000 0.08190  0.86230  0.34170  Biso   1.000  Zn
  I5       1.0000 0.02597  0.84610  0.37809  Biso   1.000  I
  I6       1.0000 0.11771  0.75080  0.30630  Biso   1.000  I
  Zn5      1.0000 0.18010  0.35040  0.03380  Biso   1.000  Zn
  I7       1.0000 0.24250  0.26950  0.05890  Biso   1.000  I
  I8       1.0000 0.13150  0.31260  0.96350  Biso   1.000  I
  I9       1.0000 0.01910  0.14710  0.87390  Biso   1.000  I
  I10      1.0000 0.11264  0.23650  0.79980  Biso   1.000  I
  Zn6      1.0000 0.37650  0.08680  0.18410  Biso   1.000  Zn
  I11      1.0000 0.35170  0.08850  0.25030  Biso   1.000  I
  I12      1.0000 0.39535  0.23830  0.14640  Biso   1.000  I
  C1       1.0000 0.64990  0.19800  0.60570  Biso   1.000  C
  H1       1.0000 0.67580  0.22100  0.61160  Biso   1.000  H
  C2       1.0000 0.62870  0.21470  0.63490  Biso   1.000  C
  H2       1.0000 0.63900  0.24990  0.65990  Biso   1.000  H
  C3       1.0000 0.59350  0.18150  0.62900  Biso   1.000  C
  C4       1.0000 0.58020  0.12900  0.59400  Biso   1.000  C
  H3       1.0000 0.55490  0.10360  0.58850  Biso   1.000  H
  C5       1.0000 0.60610  0.11400  0.56610  Biso   1.000  C
  H4       1.0000 0.59870  0.06970  0.54380  Biso   1.000  H
  C6       1.0000 0.43740  0.02610  0.72040  Biso   1.000  C
  H5       1.0000 0.42510  0.02220  0.74440  Biso   1.000  H
  C7       1.0000 0.46930  0.08770  0.72360  Biso   1.000  C
  H6       1.0000 0.47790  0.12320  0.74900  Biso   1.000  H
  C8       1.0000 0.48620  0.09390  0.69090  Biso   1.000  C
  C9       1.0000 0.46960  0.04400  0.65390  Biso   1.000  C
  H7       1.0000 0.47710  0.05460  0.62710  Biso   1.000  H
  C10      1.0000 0.44280  0.98200  0.65760  Biso   1.000  C
  H8       1.0000 0.43690  0.93830  0.63520  Biso   1.000  H
  C11      1.0000 0.59730  0.48660  0.77690  Biso   1.000  C
  H9       1.0000 0.62010  0.52250  0.77930  Biso   1.000  H
  C12      1.0000 0.59320  0.41010  0.75020  Biso   1.000  C
  H10      1.0000 0.61350  0.39260  0.73620  Biso   1.000  H
  C13      1.0000 0.56020  0.36120  0.74430  Biso   1.000  C
  C14      1.0000 0.53230  0.38660  0.76880  Biso   1.000  C
  H11      1.0000 0.50950  0.35110  0.76680  Biso   1.000  H
  C15      1.0000 0.53800  0.46100  0.79500  Biso   1.000  C
  H12      1.0000 0.51850  0.47740  0.81030  Biso   1.000  H
  C16      1.0000 0.56880  0.19730  0.66300  Biso   1.000  C
  C17      1.0000 0.52040  0.15200  0.69330  Biso   1.000  C
  C18      1.0000 0.55490  0.27610  0.71710  Biso   1.000  C
  C19      1.0000 0.31570  0.90920  0.60210  Biso   1.000  C
  H13      1.0000 0.32190  0.84810  0.59610  Biso   1.000  H
  C20      1.0000 0.28710  0.95060  0.57650  Biso   1.000  C
  H14      1.0000 0.27320  0.91760  0.55230  Biso   1.000  H
  C21      1.0000 0.27560  0.04040  0.58220  Biso   1.000  C
  C22      1.0000 0.29630  0.08270  0.61890  Biso   1.000  C
  H15      1.0000 0.28980  0.14330  0.62540  Biso   1.000  H
  C23      1.0000 0.32500  0.04020  0.64480  Biso   1.000  C
  H16      1.0000 0.33840  0.07130  0.66990  Biso   1.000  H
  C24      1.0000 0.15290  0.89230  0.41730  Biso   1.000  C
  H17      1.0000 0.15650  0.82870  0.41360  Biso   1.000  H
  C25      1.0000 0.17650  0.93420  0.45090  Biso   1.000  C
  H18      1.0000 0.19690  0.90130  0.46880  Biso   1.000  H
  C26      1.0000 0.17030  0.02830  0.45900  Biso   1.000  C
  C27      1.0000 0.14260  0.06940  0.42840  Biso   1.000  C
  H19      1.0000 0.13870  0.13330  0.43020  Biso   1.000  H
  C28      1.0000 0.12160  0.02450  0.39740  Biso   1.000  C
  H20      1.0000 0.10170  0.05690  0.37840  Biso   1.000  H
  C29      1.0000 0.21510  0.45880  0.55370  Biso   1.000  C
  H21      1.0000 0.23290  0.49880  0.57130  Biso   1.000  H
  C30      1.0000 0.22330  0.36940  0.55490  Biso   1.000  C
  H22      1.0000 0.24760  0.34830  0.57080  Biso   1.000  H
  C31      1.0000 0.19720  0.30950  0.53360  Biso   1.000  C
  C32      1.0000 0.16290  0.34370  0.50800  Biso   1.000  C
  H23      1.0000 0.14450  0.30280  0.49180  Biso   1.000  H
  C33      1.0000 0.15570  0.43730  0.50600  Biso   1.000  C
  H24      1.0000 0.13240  0.46120  0.48910  Biso   1.000  H
  C34      1.0000 0.24360  0.08510  0.55340  Biso   1.000  C
  C35      1.0000 0.19300  0.07900  0.49510  Biso   1.000  C
  C36      1.0000 0.20660  0.20790  0.53130  Biso   1.000  C
  C37      1.0000 0.09300  0.99100  0.27160  Biso   1.000  C
  H25      1.0000 0.11200  0.94720  0.26830  Biso   1.000  H
  C38      1.0000 0.09010  0.07200  0.24720  Biso   1.000  C
  H26      1.0000 0.10920  0.08790  0.23130  Biso   1.000  H
  C39      1.0000 0.05850  0.12700  0.24720  Biso   1.000  C
  C40      1.0000 0.03460  0.10450  0.27180  Biso   1.000  C
  H27      1.0000 0.01260  0.14120  0.27270  Biso   1.000  H
  C41      1.0000 0.04200  0.02680  0.29660  Biso   1.000  C
  H28      1.0000 0.02440  0.00960  0.31430  Biso   1.000  H
  C42      1.0000 0.11050  0.38700  0.07420  Biso   1.000  C
  H29      1.0000 0.10320  0.43230  0.05240  Biso   1.000  H
  C43      1.0000 0.08850  0.37600  0.10470  Biso   1.000  C
  H30      1.0000 0.06730  0.41650  0.10420  Biso   1.000  H
  C44      1.0000 0.09500  0.31180  0.13470  Biso   1.000  C
  C45      1.0000 0.12930  0.26140  0.13700  Biso   1.000  C
  H31      1.0000 0.13810  0.21800  0.15930  Biso   1.000  H
  C46      1.0000 0.15020  0.28020  0.10330  Biso   1.000  C
  H32      1.0000 0.17300  0.24560  0.10310  Biso   1.000  H
  C47      1.0000 0.93680  0.45980  0.22570  Biso   1.000  C
  H33      1.0000 0.92530  0.46530  0.25020  Biso   1.000  H
  C48      1.0000 0.96800  0.40520  0.22750  Biso   1.000  C
  H34      1.0000 0.97770  0.37190  0.25330  Biso   1.000  H
  C49      1.0000 0.98640  0.39630  0.19320  Biso   1.000  C
  C50      1.0000 0.97070  0.43790  0.15590  Biso   1.000  C
  H35      1.0000 0.98150  0.43090  0.13090  Biso   1.000  H
  C51      1.0000 0.93710  0.49290  0.15480  Biso   1.000  C
  H36      1.0000 0.92520  0.52090  0.12830  Biso   1.000  H
  C52      1.0000 0.05310  0.20850  0.21760  Biso   1.000  C
  C53      1.0000 0.07050  0.29410  0.16450  Biso   1.000  C
  C54      1.0000 0.01970  0.33330  0.19370  Biso   1.000  C
  C55      1.0000 0.21420  0.52210  0.05120  Biso   1.000  C
  H37      1.0000 0.23200  0.48000  0.06730  Biso   1.000  H
  C56      1.0000 0.22300  0.61850  0.05450  Biso   1.000  C
  H38      1.0000 0.24550  0.64020  0.07400  Biso   1.000  H
  C57      1.0000 0.19800  0.67860  0.02860  Biso   1.000  C
  C58      1.0000 0.16410  0.64450  0.00420  Biso   1.000  C
  H39      1.0000 0.14550  0.68340  0.98700  Biso   1.000  H
  C59      1.0000 0.15820  0.55160  0.00560  Biso   1.000  C
  H40      1.0000 0.13420  0.52900  0.98980  Biso   1.000  H
  C60      1.0000 0.11720  0.96960  0.89610  Biso   1.000  C
  H41      1.0000 0.09720  0.93920  0.87640  Biso   1.000  H
  C61      1.0000 0.13880  0.91930  0.93080  Biso   1.000  C
  H42      1.0000 0.13270  0.85770  0.93590  Biso   1.000  H
  C62      1.0000 0.16970  0.96430  0.95730  Biso   1.000  C
  C63      1.0000 0.17510  0.05470  0.95080  Biso   1.000  C
  H43      1.0000 0.19520  0.08690  0.96960  Biso   1.000  H
  C64      1.0000 0.15160  0.09960  0.91710  Biso   1.000  C
  H44      1.0000 0.15540  0.16310  0.91330  Biso   1.000  H
  C65      1.0000 0.31340  0.07430  0.10460  Biso   1.000  C
  H45      1.0000 0.31840  0.13740  0.10140  Biso   1.000  H
  C66      1.0000 0.28370  0.03500  0.07480  Biso   1.000  C
  H46      1.0000 0.26880  0.06960  0.05190  Biso   1.000  H
  C67      1.0000 0.27680  0.94500  0.07960  Biso   1.000  C
  C68      1.0000 0.30060  0.89630  0.11360  Biso   1.000  C
  H47      1.0000 0.29730  0.83270  0.11750  Biso   1.000  H
  C69      1.0000 0.32920  0.94600  0.14120  Biso   1.000  C
  H48      1.0000 0.34520  0.91450  0.16450  Biso   1.000  H
  C70      1.0000 0.20620  0.77710  0.02790  Biso   1.000  C
  C71      1.0000 0.19370  0.91250  0.99250  Biso   1.000  C
  C72      1.0000 0.24350  0.89880  0.04860  Biso   1.000  C
  N1       1.0000 0.63800  0.15260  0.56830  Biso   1.000  N
  N2       1.0000 0.42440  0.97640  0.68780  Biso   1.000  N
  N3       1.0000 0.57070  0.51280  0.79990  Biso   1.000  N
  N4       1.0000 0.54140  0.13800  0.66150  Biso   1.000  N
  N5       1.0000 0.52590  0.22170  0.72050  Biso   1.000  N
  N6       1.0000 0.57720  0.26710  0.68910  Biso   1.000  N
  N7       1.0000 0.33660  0.95250  0.63720  Biso   1.000  N
  N8       1.0000 0.12560  0.93330  0.38960  Biso   1.000  N
  N9       1.0000 0.18360  0.49410  0.52940  Biso   1.000  N
  N10      1.0000 0.22520  0.03590  0.51950  Biso   1.000  N
  N11      1.0000 0.18360  0.16190  0.49910  Biso   1.000  N
  N12      1.0000 0.23620  0.17420  0.56000  Biso   1.000  N
  N13      1.0000 0.07220  0.97620  0.29660  Biso   1.000  N
  N14      1.0000 0.14040  0.33920  0.07420  Biso   1.000  N
  N15      1.0000 0.92190  0.50690  0.18880  Biso   1.000  N
  N16      1.0000 0.07580  0.21790  0.18930  Biso   1.000  N
  N17      1.0000 0.04030  0.35220  0.16570  Biso   1.000  N
  N18      1.0000 0.02570  0.26880  0.22290  Biso   1.000  N
  N19      1.0000 0.18250  0.49120  0.02670  Biso   1.000  N
  N20      1.0000 0.12330  0.05600  0.88940  Biso   1.000  N
  N21      1.0000 0.33510  0.03070  0.13700  Biso   1.000  N
  N22      1.0000 0.18260  0.82410  0.99720  Biso   1.000  N
  N23      1.0000 0.22300  0.95350  0.01810  Biso   1.000  N
  N24      1.0000 0.23700  0.81200  0.05550  Biso   1.000  N
  C73      1.0000 0.23890  0.65400  0.16100  Biso   1.000  C
  N25      1.0000 0.21450  0.58530  0.17020  Biso   1.000  N
  N26      1.0000 0.27270  0.62200  0.15450  Biso   1.000  N
  C74      1.0000 0.23650  0.49700  0.17170  Biso   1.000  C
  C75      1.0000 0.27130  0.52900  0.16150  Biso   1.000  C
  C76      1.0000 0.29740  0.46800  0.15870  Biso   1.000  C
  H49      1.0000 0.32140  0.48400  0.15160  Biso   1.000  H
  C77      1.0000 0.28940  0.38200  0.16610  Biso   1.000  C
  H50      1.0000 0.30870  0.33870  0.16320  Biso   1.000  H
  C78      1.0000 0.25580  0.34600  0.17770  Biso   1.000  C
  H51      1.0000 0.25240  0.28360  0.18470  Biso   1.000  H
  C79      1.0000 0.22750  0.41600  0.17750  Biso   1.000  C
  H52      1.0000 0.20230  0.40180  0.18180  Biso   1.000  H
  C80      1.0000 0.22650  0.74700  0.15620  Biso   1.000  C
  N27      1.0000 0.25270  0.81900  0.18060  Biso   1.000  N
  N28      1.0000 0.19390  0.77000  0.12910  Biso   1.000  N
  C81      1.0000 0.22940  0.89900  0.16350  Biso   1.000  C
  C82      1.0000 0.19730  0.86900  0.13330  Biso   1.000  C
  C83      1.0000 0.17150  0.93200  0.11050  Biso   1.000  C
  H53      1.0000 0.14950  0.91210  0.08980  Biso   1.000  H
  C84      1.0000 0.17790  0.02510  0.11790  Biso   1.000  C
  H54      1.0000 0.16020  0.06840  0.10230  Biso   1.000  H
  C85      1.0000 0.21000  0.05470  0.14810  Biso   1.000  C
  H55      1.0000 0.21430  0.11820  0.15310  Biso   1.000  H
  C86      1.0000 0.23580  0.99100  0.17090  Biso   1.000  C
  H56      1.0000 0.25770  0.01160  0.19160  Biso   1.000  H
  C87      1.0000 0.17720  0.59900  0.18560  Biso   1.000  C
  H57      1.0000 0.16150  0.54260  0.18040  Biso   1.000  H
  H58      1.0000 0.16220  0.64900  0.16880  Biso   1.000  H
  C88      1.0000 0.18500  0.62300  0.23390  Biso   1.000  C
  H59      1.0000 0.15990  0.62850  0.24300  Biso   1.000  H
  H60      1.0000 0.19950  0.57180  0.25050  Biso   1.000  H
  C89      1.0000 0.20550  0.70100  0.24390  Biso   1.000  C
  H61      1.0000 0.19060  0.75590  0.24150  Biso   1.000  H
  C90      1.0000 0.24810  0.71300  0.25800  Biso   1.000  C
  H62      1.0000 0.26300  0.66200  0.27020  Biso   1.000  H
  C91      1.0000 0.26870  0.80000  0.25430  Biso   1.000  C
  H63      1.0000 0.29150  0.80330  0.27850  Biso   1.000  H
  H64      1.0000 0.25130  0.85120  0.25730  Biso   1.000  H
  C92      1.0000 0.28190  0.81000  0.21270  Biso   1.000  C
  H65      1.0000 0.29900  0.86360  0.21430  Biso   1.000  H
  H66      1.0000 0.29710  0.75500  0.20800  Biso   1.000  H
  C93      1.0000 0.04200  0.01200  0.99600  Biso   1.000  C
  H67      1.0000 0.01790  0.04690  0.99590  Biso   1.000  H
  H68      1.0000 0.03920  0.97800  0.96900  Biso   1.000  H
  C94      1.0000 0.07700  0.08000  0.00060  Biso   1.000  C
  H69      1.0000 0.10120  0.04580  0.00340  Biso   1.000  H
  H70      1.0000 0.07320  0.11940  0.97470  Biso   1.000  H
  C95      1.0000 0.07700  0.13700  0.04100  Biso   1.000  C
  H71      1.0000 0.05200  0.17000  0.03840  Biso   1.000  H
  H72      1.0000 0.09800  0.18320  0.04450  Biso   1.000  H
  C96      1.0000 0.08300  0.07400  0.08070  Biso   1.000  C
  H73      1.0000 0.10970  0.04710  0.08470  Biso   1.000  H
  H74      1.0000 0.08240  0.11070  0.10670  Biso   1.000  H
  C97      1.0000 0.05400  0.99600  0.07800  Biso   1.000  C
  H75      1.0000 0.06270  0.95310  0.10180  Biso   1.000  H
  H76      1.0000 0.02870  0.02170  0.08050  Biso   1.000  H
  C98      1.0000 0.04900  0.94500  0.03500  Biso   1.000  C
  H77      1.0000 0.02680  0.90260  0.03210  Biso   1.000  H
  H78      1.0000 0.07260  0.90830  0.03470  Biso   1.000  H
  C99      1.0000 0.94700  0.79800  0.79100  Biso   1.000  C
  H79      1.0000 0.95480  0.83210  0.76710  Biso   1.000  H
  H80      1.0000 0.91830  0.79140  0.78410  Biso   1.000  H
  C100     1.0000 0.96700  0.70400  0.79700  Biso   1.000  C
  H81      1.0000 0.99510  0.71040  0.80410  Biso   1.000  H
  H82      1.0000 0.95920  0.66700  0.77030  Biso   1.000  H
  C101     1.0000 0.95200  0.65800  0.83500  Biso   1.000  C
  H83      1.0000 0.92410  0.67190  0.83340  Biso   1.000  H
  H84      1.0000 0.95540  0.59120  0.83490  Biso   1.000  H
  C102     1.0000 0.97700  0.70200  0.87500  Biso   1.000  C
  H85      1.0000 0.99910  0.66070  0.88740  Biso   1.000  H
  H86      1.0000 0.96200  0.71330  0.89740  Biso   1.000  H
  C103     1.0000 0.99310  0.79300  0.86100  Biso   1.000  C
  H87      1.0000 0.01300  0.78010  0.84400  Biso   1.000  H
  H88      1.0000 0.00550  0.82790  0.88720  Biso   1.000  H
  C104     1.0000 0.96000  0.84900  0.83400  Biso   1.000  C
  H89      1.0000 0.93820  0.85440  0.84920  Biso   1.000  H
  H90      1.0000 0.96910  0.91110  0.82880  Biso   1.000  H
  I13      1.0000 0.73082  0.22770  0.54360  Biso   1.000  I
  I14      1.0000 0.62630  0.15440  0.44970  Biso   1.000  I
  I15      1.0000 0.35580  0.90130  0.75430  Biso   1.000  I
  I16      1.0000 0.39020  0.72900  0.65850  Biso   1.000  I
  Zn7      1.0000 0.09260  0.87600  0.34270  Biso   1.000  Zn
  I17      1.0000 0.03320  0.81980  0.37040  Biso   1.000  I
  I18      1.0000 0.13300  0.76100  0.30660  Biso   1.000  I
  Zn8      1.0000 0.16830  0.35520  0.02210  Biso   1.000  Zn
  I19      1.0000 0.22887  0.26010  0.04379  Biso   1.000  I
  I20      1.0000 0.11930  0.33270  0.95207  Biso   1.000  I
  I21      1.0000 0.03050  0.14550  0.87610  Biso   1.000  I
  I22      1.0000 0.12250  0.23320  0.80760  Biso   1.000  I
  Zn9      1.0000 0.37490  0.11420  0.18340  Biso   1.000  Zn
  I23      1.0000 0.35010  0.09840  0.25770  Biso   1.000  I
  I24      1.0000 0.39470  0.23140  0.15620  Biso   1.000  I
  C105     1.0000 0.14990  0.95200  0.09400  Biso   1.000  C
  N29      1.0000 0.13850  0.94100  0.13560  Biso   1.000  N
  N30      1.0000 0.17850  0.99800  0.09600  Biso   1.000  N
  C106     1.0000 0.16880  0.99700  0.16340  Biso   1.000  C
  C107     1.0000 0.19430  0.02500  0.13790  Biso   1.000  C
  C108     1.0000 0.22710  0.07600  0.15600  Biso   1.000  C
  H91      1.0000 0.24450  0.09490  0.13850  Biso   1.000  H
  C109     1.0000 0.23430  0.09800  0.20000  Biso   1.000  C
  H92      1.0000 0.25670  0.13250  0.21210  Biso   1.000  H
  C110     1.0000 0.20890  0.07000  0.22530  Biso   1.000  C
  H93      1.0000 0.21380  0.08520  0.25510  Biso   1.000  H
  C111     1.0000 0.17610  0.02000  0.20710  Biso   1.000  C
  H94      1.0000 0.15870  0.00030  0.22460  Biso   1.000  H
  C112     1.0000 0.12240  0.91000  0.05900  Biso   1.000  C
  N31      1.0000 0.10770  0.95700  0.02120  Biso   1.000  N
  N32      1.0000 0.11440  0.82300  0.05760  Biso   1.000  N
  C113     1.0000 0.08150  0.88600  0.98820  Biso   1.000  C
  C114     1.0000 0.08650  0.80800  0.01380  Biso   1.000  C
  C115     1.0000 0.06780  0.72800  0.99830  Biso   1.000  C
  H95      1.0000 0.07120  0.67440  0.01580  Biso   1.000  H
  C116     1.0000 0.04420  0.72500  0.95720  Biso   1.000  C
  H96      1.0000 0.03140  0.67010  0.94660  Biso   1.000  H
  C117     1.0000 0.03920  0.80300  0.93160  Biso   1.000  C
  H97      1.0000 0.02310  0.80140  0.90350  Biso   1.000  H
  C118     1.0000 0.05790  0.88400  0.94710  Biso   1.000  C
  H98      1.0000 0.05450  0.93710  0.92960  Biso   1.000  H
  C119     1.0000 0.10090  0.90900  0.14400  Biso   1.000  C
  H99      1.0000 0.08990  0.86180  0.12310  Biso   1.000  H
  H100     1.0000 0.10510  0.88200  0.17370  Biso   1.000  H
  C120     1.0000 0.07400  0.98300  0.14200  Biso   1.000  C
  H101     1.0000 0.05140  0.96260  0.15250  Biso   1.000  H
  H102     1.0000 0.08670  0.03340  0.16040  Biso   1.000  H
  C121     1.0000 0.06400  0.01200  0.10300  Biso   1.000  C
  H103     1.0000 0.04180  0.97500  0.09120  Biso   1.000  H
  C122     1.0000 0.06700  0.06300  0.07200  Biso   1.000  C
  H104     1.0000 0.05820  0.11790  0.08260  Biso   1.000  H
  C123     1.0000 0.07500  0.10400  0.02600  Biso   1.000  C
  H105     1.0000 0.05010  0.10270  0.00410  Biso   1.000  H
  H106     1.0000 0.08260  0.16880  0.03050  Biso   1.000  H
  C124     1.0000 0.10500  0.05500  0.00800  Biso   1.000  C
  H107     1.0000 0.09840  0.05850  0.97560  Biso   1.000  H
  H108     1.0000 0.13040  0.08490  0.01770  Biso   1.000  H
  C125     1.0000 0.29300  0.35000  0.17150  Biso   1.000  C
  H109     1.0000 0.27890  0.32590  0.19280  Biso   1.000  H
  H110     1.0000 0.32020  0.32660  0.17910  Biso   1.000  H
  C126     1.0000 0.27370  0.31700  0.12540  Biso   1.000  C
  H111     1.0000 0.27670  0.25010  0.12350  Biso   1.000  H
  H112     1.0000 0.24570  0.33120  0.11980  Biso   1.000  H
  C127     1.0000 0.29200  0.36400  0.09100  Biso   1.000  C
  H113     1.0000 0.27530  0.41350  0.07610  Biso   1.000  H
  H114     1.0000 0.29740  0.31990  0.06930  Biso   1.000  H
  C128     1.0000 0.33100  0.40400  0.11800  Biso   1.000  C
  H115     1.0000 0.34430  0.35810  0.13880  Biso   1.000  H
  H116     1.0000 0.34830  0.42300  0.09890  Biso   1.000  H
  C129     1.0000 0.31900  0.48800  0.14300  Biso   1.000  C
  H117     1.0000 0.34250  0.51930  0.15910  Biso   1.000  H
  H118     1.0000 0.30420  0.53230  0.12190  Biso   1.000  H
  C130     1.0000 0.29400  0.45500  0.17400  Biso   1.000  C
  H119     1.0000 0.30530  0.47500  0.20370  Biso   1.000  H
  H120     1.0000 0.26740  0.47930  0.16530  Biso   1.000  H
  Zn10     1.0000 0.16972  0.63331  0.52110  Biso   1.000  Zn
  Zn11     1.0000 0.87862  0.38658  0.68180  Biso   1.000  Zn
  Zn12     1.0000 0.58263  0.62215  0.84166  Biso   1.000  Zn
  I25      1.0000 0.22620  0.71740  0.54060  Biso   1.000  I
  I26      1.0000 0.12479  0.64420  0.44520  Biso   1.000  I
  I27      1.0000 0.85476  0.37880  0.75048  Biso   1.000  I
  I28      1.0000 0.90215  0.25577  0.64188  Biso   1.000  I
  Zn13     1.0000 0.58190  0.36230  0.34170  Biso   1.000  Zn
  I29      1.0000 0.52597  0.34610  0.37809  Biso   1.000  I
  I30      1.0000 0.61771  0.25080  0.30630  Biso   1.000  I
  Zn14     1.0000 0.68010  0.85040  0.03380  Biso   1.000  Zn
  I31      1.0000 0.74250  0.76950  0.05890  Biso   1.000  I
  I32      1.0000 0.63150  0.81260  0.96350  Biso   1.000  I
  I33      1.0000 0.51910  0.64710  0.87390  Biso   1.000  I
  I34      1.0000 0.61264  0.73650  0.79980  Biso   1.000  I
  Zn15     1.0000 0.87650  0.58680  0.18410  Biso   1.000  Zn
  I35      1.0000 0.85170  0.58850  0.25030  Biso   1.000  I
  I36      1.0000 0.89535  0.73830  0.14640  Biso   1.000  I
  C131     1.0000 0.14990  0.69800  0.60570  Biso   1.000  C
  H121     1.0000 0.17580  0.72100  0.61160  Biso   1.000  H
  C132     1.0000 0.12870  0.71470  0.63490  Biso   1.000  C
  H122     1.0000 0.13900  0.74990  0.65990  Biso   1.000  H
  C133     1.0000 0.09350  0.68150  0.62900  Biso   1.000  C
  C134     1.0000 0.08020  0.62900  0.59400  Biso   1.000  C
  H123     1.0000 0.05490  0.60360  0.58850  Biso   1.000  H
  C135     1.0000 0.10610  0.61400  0.56610  Biso   1.000  C
  H124     1.0000 0.09870  0.56970  0.54380  Biso   1.000  H
  C136     1.0000 0.93740  0.52610  0.72040  Biso   1.000  C
  H125     1.0000 0.92510  0.52220  0.74440  Biso   1.000  H
  C137     1.0000 0.96930  0.58770  0.72360  Biso   1.000  C
  H126     1.0000 0.97790  0.62320  0.74900  Biso   1.000  H
  C138     1.0000 0.98620  0.59390  0.69090  Biso   1.000  C
  C139     1.0000 0.96960  0.54400  0.65390  Biso   1.000  C
  H127     1.0000 0.97710  0.55460  0.62710  Biso   1.000  H
  C140     1.0000 0.94280  0.48200  0.65760  Biso   1.000  C
  H128     1.0000 0.93690  0.43830  0.63520  Biso   1.000  H
  C141     1.0000 0.09730  0.98660  0.77690  Biso   1.000  C
  H129     1.0000 0.12010  0.02250  0.77930  Biso   1.000  H
  C142     1.0000 0.09320  0.91010  0.75020  Biso   1.000  C
  H130     1.0000 0.11350  0.89260  0.73620  Biso   1.000  H
  C143     1.0000 0.06020  0.86120  0.74430  Biso   1.000  C
  C144     1.0000 0.03230  0.88660  0.76880  Biso   1.000  C
  H131     1.0000 0.00950  0.85110  0.76680  Biso   1.000  H
  C145     1.0000 0.03800  0.96100  0.79500  Biso   1.000  C
  H132     1.0000 0.01850  0.97740  0.81030  Biso   1.000  H
  C146     1.0000 0.06880  0.69730  0.66300  Biso   1.000  C
  C147     1.0000 0.02040  0.65200  0.69330  Biso   1.000  C
  C148     1.0000 0.05490  0.77610  0.71710  Biso   1.000  C
  C149     1.0000 0.81570  0.40920  0.60210  Biso   1.000  C
  H133     1.0000 0.82190  0.34810  0.59610  Biso   1.000  H
  C150     1.0000 0.78710  0.45060  0.57650  Biso   1.000  C
  H134     1.0000 0.77320  0.41760  0.55230  Biso   1.000  H
  C151     1.0000 0.77560  0.54040  0.58220  Biso   1.000  C
  C152     1.0000 0.79630  0.58270  0.61890  Biso   1.000  C
  H135     1.0000 0.78980  0.64330  0.62540  Biso   1.000  H
  C153     1.0000 0.82500  0.54020  0.64480  Biso   1.000  C
  H136     1.0000 0.83840  0.57130  0.66990  Biso   1.000  H
  C154     1.0000 0.65290  0.39230  0.41730  Biso   1.000  C
  H137     1.0000 0.65650  0.32870  0.41360  Biso   1.000  H
  C155     1.0000 0.67650  0.43420  0.45090  Biso   1.000  C
  H138     1.0000 0.69690  0.40130  0.46880  Biso   1.000  H
  C156     1.0000 0.67030  0.52830  0.45900  Biso   1.000  C
  C157     1.0000 0.64260  0.56940  0.42840  Biso   1.000  C
  H139     1.0000 0.63870  0.63330  0.43020  Biso   1.000  H
  C158     1.0000 0.62160  0.52450  0.39740  Biso   1.000  C
  H140     1.0000 0.60170  0.55690  0.37840  Biso   1.000  H
  C159     1.0000 0.71510  0.95880  0.55370  Biso   1.000  C
  H141     1.0000 0.73290  0.99880  0.57130  Biso   1.000  H
  C160     1.0000 0.72330  0.86940  0.55490  Biso   1.000  C
  H142     1.0000 0.74760  0.84830  0.57080  Biso   1.000  H
  C161     1.0000 0.69720  0.80950  0.53360  Biso   1.000  C
  C162     1.0000 0.66290  0.84370  0.50800  Biso   1.000  C
  H143     1.0000 0.64450  0.80280  0.49180  Biso   1.000  H
  C163     1.0000 0.65570  0.93730  0.50600  Biso   1.000  C
  H144     1.0000 0.63240  0.96120  0.48910  Biso   1.000  H
  C164     1.0000 0.74360  0.58510  0.55340  Biso   1.000  C
  C165     1.0000 0.69300  0.57900  0.49510  Biso   1.000  C
  C166     1.0000 0.70660  0.70790  0.53130  Biso   1.000  C
  C167     1.0000 0.59300  0.49100  0.27160  Biso   1.000  C
  H145     1.0000 0.61200  0.44720  0.26830  Biso   1.000  H
  C168     1.0000 0.59010  0.57200  0.24720  Biso   1.000  C
  H146     1.0000 0.60920  0.58790  0.23130  Biso   1.000  H
  C169     1.0000 0.55850  0.62700  0.24720  Biso   1.000  C
  C170     1.0000 0.53460  0.60450  0.27180  Biso   1.000  C
  H147     1.0000 0.51260  0.64120  0.27270  Biso   1.000  H
  C171     1.0000 0.54200  0.52680  0.29660  Biso   1.000  C
  H148     1.0000 0.52440  0.50960  0.31430  Biso   1.000  H
  C172     1.0000 0.61050  0.88700  0.07420  Biso   1.000  C
  H149     1.0000 0.60320  0.93230  0.05240  Biso   1.000  H
  C173     1.0000 0.58850  0.87600  0.10470  Biso   1.000  C
  H150     1.0000 0.56730  0.91650  0.10420  Biso   1.000  H
  C174     1.0000 0.59500  0.81180  0.13470  Biso   1.000  C
  C175     1.0000 0.62930  0.76140  0.13700  Biso   1.000  C
  H151     1.0000 0.63810  0.71800  0.15930  Biso   1.000  H
  C176     1.0000 0.65020  0.78020  0.10330  Biso   1.000  C
  H152     1.0000 0.67300  0.74560  0.10310  Biso   1.000  H
  C177     1.0000 0.43680  0.95980  0.22570  Biso   1.000  C
  H153     1.0000 0.42530  0.96530  0.25020  Biso   1.000  H
  C178     1.0000 0.46800  0.90520  0.22750  Biso   1.000  C
  H154     1.0000 0.47770  0.87190  0.25330  Biso   1.000  H
  C179     1.0000 0.48640  0.89630  0.19320  Biso   1.000  C
  C180     1.0000 0.47070  0.93790  0.15590  Biso   1.000  C
  H155     1.0000 0.48150  0.93090  0.13090  Biso   1.000  H
  C181     1.0000 0.43710  0.99290  0.15480  Biso   1.000  C
  H156     1.0000 0.42520  0.02090  0.12830  Biso   1.000  H
  C182     1.0000 0.55310  0.70850  0.21760  Biso   1.000  C
  C183     1.0000 0.57050  0.79410  0.16450  Biso   1.000  C
  C184     1.0000 0.51970  0.83330  0.19370  Biso   1.000  C
  C185     1.0000 0.71420  0.02210  0.05120  Biso   1.000  C
  H157     1.0000 0.73200  0.98000  0.06730  Biso   1.000  H
  C186     1.0000 0.72300  0.11850  0.05450  Biso   1.000  C
  H158     1.0000 0.74550  0.14020  0.07400  Biso   1.000  H
  C187     1.0000 0.69800  0.17860  0.02860  Biso   1.000  C
  C188     1.0000 0.66410  0.14450  0.00420  Biso   1.000  C
  H159     1.0000 0.64550  0.18340  0.98700  Biso   1.000  H
  C189     1.0000 0.65820  0.05160  0.00560  Biso   1.000  C
  H160     1.0000 0.63420  0.02900  0.98980  Biso   1.000  H
  C190     1.0000 0.61720  0.46960  0.89610  Biso   1.000  C
  H161     1.0000 0.59720  0.43920  0.87640  Biso   1.000  H
  C191     1.0000 0.63880  0.41930  0.93080  Biso   1.000  C
  H162     1.0000 0.63270  0.35770  0.93590  Biso   1.000  H
  C192     1.0000 0.66970  0.46430  0.95730  Biso   1.000  C
  C193     1.0000 0.67510  0.55470  0.95080  Biso   1.000  C
  H163     1.0000 0.69520  0.58690  0.96960  Biso   1.000  H
  C194     1.0000 0.65160  0.59960  0.91710  Biso   1.000  C
  H164     1.0000 0.65540  0.66310  0.91330  Biso   1.000  H
  C195     1.0000 0.81340  0.57430  0.10460  Biso   1.000  C
  H165     1.0000 0.81840  0.63740  0.10140  Biso   1.000  H
  C196     1.0000 0.78370  0.53500  0.07480  Biso   1.000  C
  H166     1.0000 0.76880  0.56960  0.05190  Biso   1.000  H
  C197     1.0000 0.77680  0.44500  0.07960  Biso   1.000  C
  C198     1.0000 0.80060  0.39630  0.11360  Biso   1.000  C
  H167     1.0000 0.79730  0.33270  0.11750  Biso   1.000  H
  C199     1.0000 0.82920  0.44600  0.14120  Biso   1.000  C
  H168     1.0000 0.84520  0.41450  0.16450  Biso   1.000  H
  C200     1.0000 0.70620  0.27710  0.02790  Biso   1.000  C
  C201     1.0000 0.69370  0.41250  0.99250  Biso   1.000  C
  C202     1.0000 0.74350  0.39880  0.04860  Biso   1.000  C
  N33      1.0000 0.13800  0.65260  0.56830  Biso   1.000  N
  N34      1.0000 0.92440  0.47640  0.68780  Biso   1.000  N
  N35      1.0000 0.07070  0.01280  0.79990  Biso   1.000  N
  N36      1.0000 0.04140  0.63800  0.66150  Biso   1.000  N
  N37      1.0000 0.02590  0.72170  0.72050  Biso   1.000  N
  N38      1.0000 0.07720  0.76710  0.68910  Biso   1.000  N
  N39      1.0000 0.83660  0.45250  0.63720  Biso   1.000  N
  N40      1.0000 0.62560  0.43330  0.38960  Biso   1.000  N
  N41      1.0000 0.68360  0.99410  0.52940  Biso   1.000  N
  N42      1.0000 0.72520  0.53590  0.51950  Biso   1.000  N
  N43      1.0000 0.68360  0.66190  0.49910  Biso   1.000  N
  N44      1.0000 0.73620  0.67420  0.56000  Biso   1.000  N
  N45      1.0000 0.57220  0.47620  0.29660  Biso   1.000  N
  N46      1.0000 0.64040  0.83920  0.07420  Biso   1.000  N
  N47      1.0000 0.42190  0.00690  0.18880  Biso   1.000  N
  N48      1.0000 0.57580  0.71790  0.18930  Biso   1.000  N
  N49      1.0000 0.54030  0.85220  0.16570  Biso   1.000  N
  N50      1.0000 0.52570  0.76880  0.22290  Biso   1.000  N
  N51      1.0000 0.68250  0.99120  0.02670  Biso   1.000  N
  N52      1.0000 0.62330  0.55600  0.88940  Biso   1.000  N
  N53      1.0000 0.83510  0.53070  0.13700  Biso   1.000  N
  N54      1.0000 0.68260  0.32410  0.99720  Biso   1.000  N
  N55      1.0000 0.72300  0.45350  0.01810  Biso   1.000  N
  N56      1.0000 0.73700  0.31200  0.05550  Biso   1.000  N
  C203     1.0000 0.73890  0.15400  0.16100  Biso   1.000  C
  N57      1.0000 0.71450  0.08530  0.17020  Biso   1.000  N
  N58      1.0000 0.77270  0.12200  0.15450  Biso   1.000  N
  C204     1.0000 0.73650  0.99700  0.17170  Biso   1.000  C
  C205     1.0000 0.77130  0.02900  0.16150  Biso   1.000  C
  C206     1.0000 0.79740  0.96800  0.15870  Biso   1.000  C
  H169     1.0000 0.82140  0.98400  0.15160  Biso   1.000  H
  C207     1.0000 0.78940  0.88200  0.16610  Biso   1.000  C
  H170     1.0000 0.80870  0.83870  0.16320  Biso   1.000  H
  C208     1.0000 0.75580  0.84600  0.17770  Biso   1.000  C
  H171     1.0000 0.75240  0.78360  0.18470  Biso   1.000  H
  C209     1.0000 0.72750  0.91600  0.17750  Biso   1.000  C
  H172     1.0000 0.70230  0.90180  0.18180  Biso   1.000  H
  C210     1.0000 0.72650  0.24700  0.15620  Biso   1.000  C
  N59      1.0000 0.75270  0.31900  0.18060  Biso   1.000  N
  N60      1.0000 0.69390  0.27000  0.12910  Biso   1.000  N
  C211     1.0000 0.72940  0.39900  0.16350  Biso   1.000  C
  C212     1.0000 0.69730  0.36900  0.13330  Biso   1.000  C
  C213     1.0000 0.67150  0.43200  0.11050  Biso   1.000  C
  H173     1.0000 0.64950  0.41210  0.08980  Biso   1.000  H
  C214     1.0000 0.67790  0.52510  0.11790  Biso   1.000  C
  H174     1.0000 0.66020  0.56840  0.10230  Biso   1.000  H
  C215     1.0000 0.71000  0.55470  0.14810  Biso   1.000  C
  H175     1.0000 0.71430  0.61820  0.15310  Biso   1.000  H
  C216     1.0000 0.73580  0.49100  0.17090  Biso   1.000  C
  H176     1.0000 0.75770  0.51160  0.19160  Biso   1.000  H
  C217     1.0000 0.67720  0.09900  0.18560  Biso   1.000  C
  H177     1.0000 0.66150  0.04260  0.18040  Biso   1.000  H
  H178     1.0000 0.66220  0.14900  0.16880  Biso   1.000  H
  C218     1.0000 0.68500  0.12300  0.23390  Biso   1.000  C
  H179     1.0000 0.65990  0.12850  0.24300  Biso   1.000  H
  H180     1.0000 0.69950  0.07180  0.25050  Biso   1.000  H
  C219     1.0000 0.70550  0.20100  0.24390  Biso   1.000  C
  H181     1.0000 0.69060  0.25590  0.24150  Biso   1.000  H
  C220     1.0000 0.74810  0.21300  0.25800  Biso   1.000  C
  H182     1.0000 0.76300  0.16200  0.27020  Biso   1.000  H
  C221     1.0000 0.76870  0.30000  0.25430  Biso   1.000  C
  H183     1.0000 0.79150  0.30330  0.27850  Biso   1.000  H
  H184     1.0000 0.75130  0.35120  0.25730  Biso   1.000  H
  C222     1.0000 0.78190  0.31000  0.21270  Biso   1.000  C
  H185     1.0000 0.79900  0.36360  0.21430  Biso   1.000  H
  H186     1.0000 0.79710  0.25500  0.20800  Biso   1.000  H
  C223     1.0000 0.54200  0.51200  0.99600  Biso   1.000  C
  H187     1.0000 0.51790  0.54690  0.99590  Biso   1.000  H
  H188     1.0000 0.53920  0.47800  0.96900  Biso   1.000  H
  C224     1.0000 0.57700  0.58000  0.00060  Biso   1.000  C
  H189     1.0000 0.60120  0.54580  0.00340  Biso   1.000  H
  H190     1.0000 0.57320  0.61940  0.97470  Biso   1.000  H
  C225     1.0000 0.57700  0.63700  0.04100  Biso   1.000  C
  H191     1.0000 0.55200  0.67000  0.03840  Biso   1.000  H
  H192     1.0000 0.59800  0.68320  0.04450  Biso   1.000  H
  C226     1.0000 0.58300  0.57400  0.08070  Biso   1.000  C
  H193     1.0000 0.60970  0.54710  0.08470  Biso   1.000  H
  H194     1.0000 0.58240  0.61070  0.10670  Biso   1.000  H
  C227     1.0000 0.55400  0.49600  0.07800  Biso   1.000  C
  H195     1.0000 0.56270  0.45310  0.10180  Biso   1.000  H
  H196     1.0000 0.52870  0.52170  0.08050  Biso   1.000  H
  C228     1.0000 0.54900  0.44500  0.03500  Biso   1.000  C
  H197     1.0000 0.52680  0.40260  0.03210  Biso   1.000  H
  H198     1.0000 0.57260  0.40830  0.03470  Biso   1.000  H
  C229     1.0000 0.44700  0.29800  0.79100  Biso   1.000  C
  H199     1.0000 0.45480  0.33210  0.76710  Biso   1.000  H
  H200     1.0000 0.41830  0.29140  0.78410  Biso   1.000  H
  C230     1.0000 0.46700  0.20400  0.79700  Biso   1.000  C
  H201     1.0000 0.49510  0.21040  0.80410  Biso   1.000  H
  H202     1.0000 0.45920  0.16700  0.77030  Biso   1.000  H
  C231     1.0000 0.45200  0.15800  0.83500  Biso   1.000  C
  H203     1.0000 0.42410  0.17190  0.83340  Biso   1.000  H
  H204     1.0000 0.45540  0.09120  0.83490  Biso   1.000  H
  C232     1.0000 0.47700  0.20200  0.87500  Biso   1.000  C
  H205     1.0000 0.49910  0.16070  0.88740  Biso   1.000  H
  H206     1.0000 0.46200  0.21330  0.89740  Biso   1.000  H
  C233     1.0000 0.49310  0.29300  0.86100  Biso   1.000  C
  H207     1.0000 0.51300  0.28010  0.84400  Biso   1.000  H
  H208     1.0000 0.50550  0.32790  0.88720  Biso   1.000  H
  C234     1.0000 0.46000  0.34900  0.83400  Biso   1.000  C
  H209     1.0000 0.43820  0.35440  0.84920  Biso   1.000  H
  H210     1.0000 0.46910  0.41110  0.82880  Biso   1.000  H
  I37      1.0000 0.23082  0.72770  0.54360  Biso   1.000  I
  I38      1.0000 0.12630  0.65440  0.44970  Biso   1.000  I
  I39      1.0000 0.85580  0.40130  0.75430  Biso   1.000  I
  I40      1.0000 0.89020  0.22900  0.65850  Biso   1.000  I
  Zn16     1.0000 0.59260  0.37600  0.34270  Biso   1.000  Zn
  I41      1.0000 0.53320  0.31980  0.37040  Biso   1.000  I
  I42      1.0000 0.63300  0.26100  0.30660  Biso   1.000  I
  Zn17     1.0000 0.66830  0.85520  0.02210  Biso   1.000  Zn
  I43      1.0000 0.72887  0.76010  0.04379  Biso   1.000  I
  I44      1.0000 0.61930  0.83270  0.95207  Biso   1.000  I
  I45      1.0000 0.53050  0.64550  0.87610  Biso   1.000  I
  I46      1.0000 0.62250  0.73320  0.80760  Biso   1.000  I
  Zn18     1.0000 0.87490  0.61420  0.18340  Biso   1.000  Zn
  I47      1.0000 0.85010  0.59840  0.25770  Biso   1.000  I
  I48      1.0000 0.89470  0.73140  0.15620  Biso   1.000  I
  C235     1.0000 0.64990  0.45200  0.09400  Biso   1.000  C
  N61      1.0000 0.63850  0.44100  0.13560  Biso   1.000  N
  N62      1.0000 0.67850  0.49800  0.09600  Biso   1.000  N
  C236     1.0000 0.66880  0.49700  0.16340  Biso   1.000  C
  C237     1.0000 0.69430  0.52500  0.13790  Biso   1.000  C
  C238     1.0000 0.72710  0.57600  0.15600  Biso   1.000  C
  H211     1.0000 0.74450  0.59490  0.13850  Biso   1.000  H
  C239     1.0000 0.73430  0.59800  0.20000  Biso   1.000  C
  H212     1.0000 0.75670  0.63250  0.21210  Biso   1.000  H
  C240     1.0000 0.70890  0.57000  0.22530  Biso   1.000  C
  H213     1.0000 0.71380  0.58520  0.25510  Biso   1.000  H
  C241     1.0000 0.67610  0.52000  0.20710  Biso   1.000  C
  H214     1.0000 0.65870  0.50030  0.22460  Biso   1.000  H
  C242     1.0000 0.62240  0.41000  0.05900  Biso   1.000  C
  N63      1.0000 0.60770  0.45700  0.02120  Biso   1.000  N
  N64      1.0000 0.61440  0.32300  0.05760  Biso   1.000  N
  C243     1.0000 0.58150  0.38600  0.98820  Biso   1.000  C
  C244     1.0000 0.58650  0.30800  0.01380  Biso   1.000  C
  C245     1.0000 0.56780  0.22800  0.99830  Biso   1.000  C
  H215     1.0000 0.57120  0.17440  0.01580  Biso   1.000  H
  C246     1.0000 0.54420  0.22500  0.95720  Biso   1.000  C
  H216     1.0000 0.53140  0.17010  0.94660  Biso   1.000  H
  C247     1.0000 0.53920  0.30300  0.93160  Biso   1.000  C
  H217     1.0000 0.52310  0.30140  0.90350  Biso   1.000  H
  C248     1.0000 0.55790  0.38400  0.94710  Biso   1.000  C
  H218     1.0000 0.55450  0.43710  0.92960  Biso   1.000  H
  C249     1.0000 0.60090  0.40900  0.14400  Biso   1.000  C
  H219     1.0000 0.58990  0.36180  0.12310  Biso   1.000  H
  H220     1.0000 0.60510  0.38200  0.17370  Biso   1.000  H
  C250     1.0000 0.57400  0.48300  0.14200  Biso   1.000  C
  H221     1.0000 0.55140  0.46260  0.15250  Biso   1.000  H
  H222     1.0000 0.58670  0.53340  0.16040  Biso   1.000  H
  C251     1.0000 0.56400  0.51200  0.10300  Biso   1.000  C
  H223     1.0000 0.54180  0.47500  0.09120  Biso   1.000  H
  C252     1.0000 0.56700  0.56300  0.07200  Biso   1.000  C
  H224     1.0000 0.55820  0.61790  0.08260  Biso   1.000  H
  C253     1.0000 0.57500  0.60400  0.02600  Biso   1.000  C
  H225     1.0000 0.55010  0.60270  0.00410  Biso   1.000  H
  H226     1.0000 0.58260  0.66880  0.03050  Biso   1.000  H
  C254     1.0000 0.60500  0.55500  0.00800  Biso   1.000  C
  H227     1.0000 0.59840  0.55850  0.97560  Biso   1.000  H
  H228     1.0000 0.63040  0.58490  0.01770  Biso   1.000  H
  C255     1.0000 0.79300  0.85000  0.17150  Biso   1.000  C
  H229     1.0000 0.77890  0.82590  0.19280  Biso   1.000  H
  H230     1.0000 0.82020  0.82660  0.17910  Biso   1.000  H
  C256     1.0000 0.77370  0.81700  0.12540  Biso   1.000  C
  H231     1.0000 0.77670  0.75010  0.12350  Biso   1.000  H
  H232     1.0000 0.74570  0.83120  0.11980  Biso   1.000  H
  C257     1.0000 0.79200  0.86400  0.09100  Biso   1.000  C
  H233     1.0000 0.77530  0.91350  0.07610  Biso   1.000  H
  H234     1.0000 0.79740  0.81990  0.06930  Biso   1.000  H
  C258     1.0000 0.83100  0.90400  0.11800  Biso   1.000  C
  H235     1.0000 0.84430  0.85810  0.13880  Biso   1.000  H
  H236     1.0000 0.84830  0.92300  0.09890  Biso   1.000  H
  C259     1.0000 0.81900  0.98800  0.14300  Biso   1.000  C
  H237     1.0000 0.84250  0.01930  0.15910  Biso   1.000  H
  H238     1.0000 0.80420  0.03230  0.12190  Biso   1.000  H
  C260     1.0000 0.79400  0.95500  0.17400  Biso   1.000  C
  H239     1.0000 0.80530  0.97500  0.20370  Biso   1.000  H
  H240     1.0000 0.76740  0.97930  0.16530  Biso   1.000  H
  Zn19     1.0000 0.33028  0.13331  0.47890  Biso   1.000  Zn
  Zn20     1.0000 0.62138  0.88658  0.31820  Biso   1.000  Zn
  Zn21     1.0000 0.91737  0.12215  0.15834  Biso   1.000  Zn
  I49      1.0000 0.27380  0.21740  0.45940  Biso   1.000  I
  I50      1.0000 0.37521  0.14420  0.55480  Biso   1.000  I
  I51      1.0000 0.64524  0.87880  0.24952  Biso   1.000  I
  I52      1.0000 0.59785  0.75577  0.35812  Biso   1.000  I
  Zn22     1.0000 0.91810  0.86230  0.65830  Biso   1.000  Zn
  I53      1.0000 0.97403  0.84610  0.62191  Biso   1.000  I
  I54      1.0000 0.88229  0.75080  0.69370  Biso   1.000  I
  Zn23     1.0000 0.81990  0.35040  0.96620  Biso   1.000  Zn
  I55      1.0000 0.75750  0.26950  0.94110  Biso   1.000  I
  I56      1.0000 0.86850  0.31260  0.03650  Biso   1.000  I
  I57      1.0000 0.98090  0.14710  0.12610  Biso   1.000  I
  I58      1.0000 0.88736  0.23650  0.20020  Biso   1.000  I
  Zn24     1.0000 0.62350  0.08680  0.81590  Biso   1.000  Zn
  I59      1.0000 0.64830  0.08850  0.74970  Biso   1.000  I
  I60      1.0000 0.60465  0.23830  0.85360  Biso   1.000  I
  C261     1.0000 0.35010  0.19800  0.39430  Biso   1.000  C
  H241     1.0000 0.32420  0.22100  0.38840  Biso   1.000  H
  C262     1.0000 0.37130  0.21470  0.36510  Biso   1.000  C
  H242     1.0000 0.36100  0.24990  0.34010  Biso   1.000  H
  C263     1.0000 0.40650  0.18150  0.37100  Biso   1.000  C
  C264     1.0000 0.41980  0.12900  0.40600  Biso   1.000  C
  H243     1.0000 0.44510  0.10360  0.41150  Biso   1.000  H
  C265     1.0000 0.39390  0.11400  0.43390  Biso   1.000  C
  H244     1.0000 0.40130  0.06970  0.45620  Biso   1.000  H
  C266     1.0000 0.56260  0.02610  0.27960  Biso   1.000  C
  H245     1.0000 0.57490  0.02220  0.25560  Biso   1.000  H
  C267     1.0000 0.53070  0.08770  0.27640  Biso   1.000  C
  H246     1.0000 0.52210  0.12320  0.25100  Biso   1.000  H
  C268     1.0000 0.51380  0.09390  0.30910  Biso   1.000  C
  C269     1.0000 0.53040  0.04400  0.34610  Biso   1.000  C
  H247     1.0000 0.52290  0.05460  0.37290  Biso   1.000  H
  C270     1.0000 0.55720  0.98200  0.34240  Biso   1.000  C
  H248     1.0000 0.56310  0.93830  0.36480  Biso   1.000  H
  C271     1.0000 0.40270  0.48660  0.22310  Biso   1.000  C
  H249     1.0000 0.37990  0.52250  0.22070  Biso   1.000  H
  C272     1.0000 0.40680  0.41010  0.24980  Biso   1.000  C
  H250     1.0000 0.38650  0.39260  0.26380  Biso   1.000  H
  C273     1.0000 0.43980  0.36120  0.25570  Biso   1.000  C
  C274     1.0000 0.46770  0.38660  0.23120  Biso   1.000  C
  H251     1.0000 0.49050  0.35110  0.23320  Biso   1.000  H
  C275     1.0000 0.46200  0.46100  0.20500  Biso   1.000  C
  H252     1.0000 0.48150  0.47740  0.18970  Biso   1.000  H
  C276     1.0000 0.43120  0.19730  0.33700  Biso   1.000  C
  C277     1.0000 0.47960  0.15200  0.30670  Biso   1.000  C
  C278     1.0000 0.44510  0.27610  0.28290  Biso   1.000  C
  C279     1.0000 0.68430  0.90920  0.39790  Biso   1.000  C
  H253     1.0000 0.67810  0.84810  0.40390  Biso   1.000  H
  C280     1.0000 0.71290  0.95060  0.42350  Biso   1.000  C
  H254     1.0000 0.72680  0.91760  0.44770  Biso   1.000  H
  C281     1.0000 0.72440  0.04040  0.41780  Biso   1.000  C
  C282     1.0000 0.70370  0.08270  0.38110  Biso   1.000  C
  H255     1.0000 0.71020  0.14330  0.37460  Biso   1.000  H
  C283     1.0000 0.67500  0.04020  0.35520  Biso   1.000  C
  H256     1.0000 0.66160  0.07130  0.33010  Biso   1.000  H
  C284     1.0000 0.84710  0.89230  0.58270  Biso   1.000  C
  H257     1.0000 0.84350  0.82870  0.58640  Biso   1.000  H
  C285     1.0000 0.82350  0.93420  0.54910  Biso   1.000  C
  H258     1.0000 0.80310  0.90130  0.53120  Biso   1.000  H
  C286     1.0000 0.82970  0.02830  0.54100  Biso   1.000  C
  C287     1.0000 0.85740  0.06940  0.57160  Biso   1.000  C
  H259     1.0000 0.86130  0.13330  0.56980  Biso   1.000  H
  C288     1.0000 0.87840  0.02450  0.60260  Biso   1.000  C
  H260     1.0000 0.89830  0.05690  0.62160  Biso   1.000  H
  C289     1.0000 0.78490  0.45880  0.44630  Biso   1.000  C
  H261     1.0000 0.76710  0.49880  0.42870  Biso   1.000  H
  C290     1.0000 0.77670  0.36940  0.44510  Biso   1.000  C
  H262     1.0000 0.75240  0.34830  0.42920  Biso   1.000  H
  C291     1.0000 0.80280  0.30950  0.46640  Biso   1.000  C
  C292     1.0000 0.83710  0.34370  0.49200  Biso   1.000  C
  H263     1.0000 0.85550  0.30280  0.50820  Biso   1.000  H
  C293     1.0000 0.84430  0.43730  0.49400  Biso   1.000  C
  H264     1.0000 0.86760  0.46120  0.51090  Biso   1.000  H
  C294     1.0000 0.75640  0.08510  0.44660  Biso   1.000  C
  C295     1.0000 0.80700  0.07900  0.50490  Biso   1.000  C
  C296     1.0000 0.79340  0.20790  0.46870  Biso   1.000  C
  C297     1.0000 0.90700  0.99100  0.72840  Biso   1.000  C
  H265     1.0000 0.88800  0.94720  0.73170  Biso   1.000  H
  C298     1.0000 0.90990  0.07200  0.75280  Biso   1.000  C
  H266     1.0000 0.89080  0.08790  0.76870  Biso   1.000  H
  C299     1.0000 0.94150  0.12700  0.75280  Biso   1.000  C
  C300     1.0000 0.96540  0.10450  0.72820  Biso   1.000  C
  H267     1.0000 0.98740  0.14120  0.72730  Biso   1.000  H
  C301     1.0000 0.95800  0.02680  0.70340  Biso   1.000  C
  H268     1.0000 0.97560  0.00960  0.68570  Biso   1.000  H
  C302     1.0000 0.88950  0.38700  0.92580  Biso   1.000  C
  H269     1.0000 0.89680  0.43230  0.94760  Biso   1.000  H
  C303     1.0000 0.91150  0.37600  0.89530  Biso   1.000  C
  H270     1.0000 0.93270  0.41650  0.89580  Biso   1.000  H
  C304     1.0000 0.90500  0.31180  0.86530  Biso   1.000  C
  C305     1.0000 0.87070  0.26140  0.86300  Biso   1.000  C
  H271     1.0000 0.86190  0.21800  0.84070  Biso   1.000  H
  C306     1.0000 0.84980  0.28020  0.89670  Biso   1.000  C
  H272     1.0000 0.82700  0.24560  0.89690  Biso   1.000  H
  C307     1.0000 0.06320  0.45980  0.77430  Biso   1.000  C
  H273     1.0000 0.07470  0.46530  0.74980  Biso   1.000  H
  C308     1.0000 0.03200  0.40520  0.77250  Biso   1.000  C
  H274     1.0000 0.02230  0.37190  0.74670  Biso   1.000  H
  C309     1.0000 0.01360  0.39630  0.80680  Biso   1.000  C
  C310     1.0000 0.02930  0.43790  0.84410  Biso   1.000  C
  H275     1.0000 0.01850  0.43090  0.86910  Biso   1.000  H
  C311     1.0000 0.06290  0.49290  0.84520  Biso   1.000  C
  H276     1.0000 0.07480  0.52090  0.87170  Biso   1.000  H
  C312     1.0000 0.94690  0.20850  0.78240  Biso   1.000  C
  C313     1.0000 0.92950  0.29410  0.83550  Biso   1.000  C
  C314     1.0000 0.98030  0.33330  0.80630  Biso   1.000  C
  C315     1.0000 0.78580  0.52210  0.94880  Biso   1.000  C
  H277     1.0000 0.76800  0.48000  0.93270  Biso   1.000  H
  C316     1.0000 0.77700  0.61850  0.94550  Biso   1.000  C
  H278     1.0000 0.75450  0.64020  0.92600  Biso   1.000  H
  C317     1.0000 0.80200  0.67860  0.97140  Biso   1.000  C
  C318     1.0000 0.83590  0.64450  0.99580  Biso   1.000  C
  H279     1.0000 0.85450  0.68340  0.01300  Biso   1.000  H
  C319     1.0000 0.84180  0.55160  0.99440  Biso   1.000  C
  H280     1.0000 0.86580  0.52900  0.01020  Biso   1.000  H
  C320     1.0000 0.88280  0.96960  0.10390  Biso   1.000  C
  H281     1.0000 0.90280  0.93920  0.12360  Biso   1.000  H
  C321     1.0000 0.86120  0.91930  0.06920  Biso   1.000  C
  H282     1.0000 0.86730  0.85770  0.06410  Biso   1.000  H
  C322     1.0000 0.83030  0.96430  0.04270  Biso   1.000  C
  C323     1.0000 0.82490  0.05470  0.04920  Biso   1.000  C
  H283     1.0000 0.80480  0.08690  0.03040  Biso   1.000  H
  C324     1.0000 0.84840  0.09960  0.08290  Biso   1.000  C
  H284     1.0000 0.84460  0.16310  0.08670  Biso   1.000  H
  C325     1.0000 0.68660  0.07430  0.89540  Biso   1.000  C
  H285     1.0000 0.68160  0.13740  0.89860  Biso   1.000  H
  C326     1.0000 0.71630  0.03500  0.92520  Biso   1.000  C
  H286     1.0000 0.73120  0.06960  0.94810  Biso   1.000  H
  C327     1.0000 0.72320  0.94500  0.92040  Biso   1.000  C
  C328     1.0000 0.69940  0.89630  0.88640  Biso   1.000  C
  H287     1.0000 0.70270  0.83270  0.88250  Biso   1.000  H
  C329     1.0000 0.67080  0.94600  0.85880  Biso   1.000  C
  H288     1.0000 0.65480  0.91450  0.83550  Biso   1.000  H
  C330     1.0000 0.79380  0.77710  0.97210  Biso   1.000  C
  C331     1.0000 0.80630  0.91250  0.00750  Biso   1.000  C
  C332     1.0000 0.75650  0.89880  0.95140  Biso   1.000  C
  N65      1.0000 0.36200  0.15260  0.43170  Biso   1.000  N
  N66      1.0000 0.57560  0.97640  0.31220  Biso   1.000  N
  N67      1.0000 0.42930  0.51280  0.20010  Biso   1.000  N
  N68      1.0000 0.45860  0.13800  0.33850  Biso   1.000  N
  N69      1.0000 0.47410  0.22170  0.27950  Biso   1.000  N
  N70      1.0000 0.42280  0.26710  0.31090  Biso   1.000  N
  N71      1.0000 0.66340  0.95250  0.36280  Biso   1.000  N
  N72      1.0000 0.87440  0.93330  0.61040  Biso   1.000  N
  N73      1.0000 0.81640  0.49410  0.47060  Biso   1.000  N
  N74      1.0000 0.77480  0.03590  0.48050  Biso   1.000  N
  N75      1.0000 0.81640  0.16190  0.50090  Biso   1.000  N
  N76      1.0000 0.76380  0.17420  0.44000  Biso   1.000  N
  N77      1.0000 0.92780  0.97620  0.70340  Biso   1.000  N
  N78      1.0000 0.85960  0.33920  0.92580  Biso   1.000  N
  N79      1.0000 0.07810  0.50690  0.81120  Biso   1.000  N
  N80      1.0000 0.92420  0.21790  0.81070  Biso   1.000  N
  N81      1.0000 0.95970  0.35220  0.83430  Biso   1.000  N
  N82      1.0000 0.97430  0.26880  0.77710  Biso   1.000  N
  N83      1.0000 0.81750  0.49120  0.97330  Biso   1.000  N
  N84      1.0000 0.87670  0.05600  0.11060  Biso   1.000  N
  N85      1.0000 0.66490  0.03070  0.86300  Biso   1.000  N
  N86      1.0000 0.81740  0.82410  0.00280  Biso   1.000  N
  N87      1.0000 0.77700  0.95350  0.98190  Biso   1.000  N
  N88      1.0000 0.76300  0.81200  0.94450  Biso   1.000  N
  C333     1.0000 0.76110  0.65400  0.83900  Biso   1.000  C
  N89      1.0000 0.78550  0.58530  0.82980  Biso   1.000  N
  N90      1.0000 0.72730  0.62200  0.84550  Biso   1.000  N
  C334     1.0000 0.76350  0.49700  0.82830  Biso   1.000  C
  C335     1.0000 0.72870  0.52900  0.83850  Biso   1.000  C
  C336     1.0000 0.70260  0.46800  0.84130  Biso   1.000  C
  H289     1.0000 0.67860  0.48400  0.84840  Biso   1.000  H
  C337     1.0000 0.71060  0.38200  0.83390  Biso   1.000  C
  H290     1.0000 0.69130  0.33870  0.83680  Biso   1.000  H
  C338     1.0000 0.74420  0.34600  0.82230  Biso   1.000  C
  H291     1.0000 0.74760  0.28360  0.81530  Biso   1.000  H
  C339     1.0000 0.77250  0.41600  0.82250  Biso   1.000  C
  H292     1.0000 0.79770  0.40180  0.81820  Biso   1.000  H
  C340     1.0000 0.77350  0.74700  0.84380  Biso   1.000  C
  N91      1.0000 0.74730  0.81900  0.81940  Biso   1.000  N
  N92      1.0000 0.80610  0.77000  0.87090  Biso   1.000  N
  C341     1.0000 0.77060  0.89900  0.83650  Biso   1.000  C
  C342     1.0000 0.80270  0.86900  0.86670  Biso   1.000  C
  C343     1.0000 0.82850  0.93200  0.88950  Biso   1.000  C
  H293     1.0000 0.85050  0.91210  0.91020  Biso   1.000  H
  C344     1.0000 0.82210  0.02510  0.88210  Biso   1.000  C
  H294     1.0000 0.83980  0.06840  0.89770  Biso   1.000  H
  C345     1.0000 0.79000  0.05470  0.85190  Biso   1.000  C
  H295     1.0000 0.78570  0.11820  0.84690  Biso   1.000  H
  C346     1.0000 0.76420  0.99100  0.82910  Biso   1.000  C
  H296     1.0000 0.74230  0.01160  0.80840  Biso   1.000  H
  C347     1.0000 0.82280  0.59900  0.81440  Biso   1.000  C
  H297     1.0000 0.83850  0.54260  0.81960  Biso   1.000  H
  H298     1.0000 0.83780  0.64900  0.83120  Biso   1.000  H
  C348     1.0000 0.81500  0.62300  0.76610  Biso   1.000  C
  H299     1.0000 0.84010  0.62850  0.75700  Biso   1.000  H
  H300     1.0000 0.80050  0.57180  0.74950  Biso   1.000  H
  C349     1.0000 0.79450  0.70100  0.75610  Biso   1.000  C
  H301     1.0000 0.80940  0.75590  0.75850  Biso   1.000  H
  C350     1.0000 0.75190  0.71300  0.74200  Biso   1.000  C
  H302     1.0000 0.73700  0.66200  0.72980  Biso   1.000  H
  C351     1.0000 0.73130  0.80000  0.74570  Biso   1.000  C
  H303     1.0000 0.70850  0.80330  0.72150  Biso   1.000  H
  H304     1.0000 0.74870  0.85120  0.74270  Biso   1.000  H
  C352     1.0000 0.71810  0.81000  0.78730  Biso   1.000  C
  H305     1.0000 0.70100  0.86360  0.78570  Biso   1.000  H
  H306     1.0000 0.70290  0.75500  0.79200  Biso   1.000  H
  C353     1.0000 0.95800  0.01200  0.00400  Biso   1.000  C
  H307     1.0000 0.98210  0.04690  0.00410  Biso   1.000  H
  H308     1.0000 0.96080  0.97800  0.03100  Biso   1.000  H
  C354     1.0000 0.92300  0.08000  0.99940  Biso   1.000  C
  H309     1.0000 0.89880  0.04580  0.99660  Biso   1.000  H
  H310     1.0000 0.92680  0.11940  0.02530  Biso   1.000  H
  C355     1.0000 0.92300  0.13700  0.95900  Biso   1.000  C
  H311     1.0000 0.94800  0.17000  0.96160  Biso   1.000  H
  H312     1.0000 0.90200  0.18320  0.95550  Biso   1.000  H
  C356     1.0000 0.91700  0.07400  0.91930  Biso   1.000  C
  H313     1.0000 0.89030  0.04710  0.91530  Biso   1.000  H
  H314     1.0000 0.91760  0.11070  0.89330  Biso   1.000  H
  C357     1.0000 0.94600  0.99600  0.92200  Biso   1.000  C
  H315     1.0000 0.93730  0.95310  0.89820  Biso   1.000  H
  H316     1.0000 0.97130  0.02170  0.91950  Biso   1.000  H
  C358     1.0000 0.95100  0.94500  0.96500  Biso   1.000  C
  H317     1.0000 0.97320  0.90260  0.96790  Biso   1.000  H
  H318     1.0000 0.92740  0.90830  0.96530  Biso   1.000  H
  C359     1.0000 0.05300  0.79800  0.20900  Biso   1.000  C
  H319     1.0000 0.04520  0.83210  0.23290  Biso   1.000  H
  H320     1.0000 0.08170  0.79140  0.21590  Biso   1.000  H
  C360     1.0000 0.03300  0.70400  0.20300  Biso   1.000  C
  H321     1.0000 0.00490  0.71040  0.19590  Biso   1.000  H
  H322     1.0000 0.04080  0.66700  0.22970  Biso   1.000  H
  C361     1.0000 0.04800  0.65800  0.16500  Biso   1.000  C
  H323     1.0000 0.07590  0.67190  0.16660  Biso   1.000  H
  H324     1.0000 0.04460  0.59120  0.16510  Biso   1.000  H
  C362     1.0000 0.02300  0.70200  0.12500  Biso   1.000  C
  H325     1.0000 0.00090  0.66070  0.11260  Biso   1.000  H
  H326     1.0000 0.03800  0.71330  0.10260  Biso   1.000  H
  C363     1.0000 0.00690  0.79300  0.13900  Biso   1.000  C
  H327     1.0000 0.98700  0.78010  0.15600  Biso   1.000  H
  H328     1.0000 0.99450  0.82790  0.11280  Biso   1.000  H
  C364     1.0000 0.04000  0.84900  0.16600  Biso   1.000  C
  H329     1.0000 0.06180  0.85440  0.15080  Biso   1.000  H
  H330     1.0000 0.03090  0.91110  0.17120  Biso   1.000  H
  I61      1.0000 0.26918  0.22770  0.45640  Biso   1.000  I
  I62      1.0000 0.37370  0.15440  0.55030  Biso   1.000  I
  I63      1.0000 0.64420  0.90130  0.24570  Biso   1.000  I
  I64      1.0000 0.60980  0.72900  0.34150  Biso   1.000  I
  Zn25     1.0000 0.90740  0.87600  0.65730  Biso   1.000  Zn
  I65      1.0000 0.96680  0.81980  0.62960  Biso   1.000  I
  I66      1.0000 0.86700  0.76100  0.69340  Biso   1.000  I
  Zn26     1.0000 0.83170  0.35520  0.97790  Biso   1.000  Zn
  I67      1.0000 0.77113  0.26010  0.95621  Biso   1.000  I
  I68      1.0000 0.88070  0.33270  0.04793  Biso   1.000  I
  I69      1.0000 0.96950  0.14550  0.12390  Biso   1.000  I
  I70      1.0000 0.87750  0.23320  0.19240  Biso   1.000  I
  Zn27     1.0000 0.62510  0.11420  0.81660  Biso   1.000  Zn
  I71      1.0000 0.64990  0.09840  0.74230  Biso   1.000  I
  I72      1.0000 0.60530  0.23140  0.84380  Biso   1.000  I
  C365     1.0000 0.85010  0.95200  0.90600  Biso   1.000  C
  N93      1.0000 0.86150  0.94100  0.86440  Biso   1.000  N
  N94      1.0000 0.82150  0.99800  0.90400  Biso   1.000  N
  C366     1.0000 0.83120  0.99700  0.83660  Biso   1.000  C
  C367     1.0000 0.80570  0.02500  0.86210  Biso   1.000  C
  C368     1.0000 0.77290  0.07600  0.84400  Biso   1.000  C
  H331     1.0000 0.75550  0.09490  0.86150  Biso   1.000  H
  C369     1.0000 0.76570  0.09800  0.80000  Biso   1.000  C
  H332     1.0000 0.74330  0.13250  0.78790  Biso   1.000  H
  C370     1.0000 0.79110  0.07000  0.77470  Biso   1.000  C
  H333     1.0000 0.78620  0.08520  0.74490  Biso   1.000  H
  C371     1.0000 0.82390  0.02000  0.79290  Biso   1.000  C
  H334     1.0000 0.84130  0.00030  0.77540  Biso   1.000  H
  C372     1.0000 0.87760  0.91000  0.94100  Biso   1.000  C
  N95      1.0000 0.89230  0.95700  0.97880  Biso   1.000  N
  N96      1.0000 0.88560  0.82300  0.94240  Biso   1.000  N
  C373     1.0000 0.91850  0.88600  0.01180  Biso   1.000  C
  C374     1.0000 0.91350  0.80800  0.98620  Biso   1.000  C
  C375     1.0000 0.93220  0.72800  0.00170  Biso   1.000  C
  H335     1.0000 0.92880  0.67440  0.98420  Biso   1.000  H
  C376     1.0000 0.95580  0.72500  0.04280  Biso   1.000  C
  H336     1.0000 0.96860  0.67010  0.05340  Biso   1.000  H
  C377     1.0000 0.96080  0.80300  0.06840  Biso   1.000  C
  H337     1.0000 0.97690  0.80140  0.09650  Biso   1.000  H
  C378     1.0000 0.94210  0.88400  0.05290  Biso   1.000  C
  H338     1.0000 0.94550  0.93710  0.07040  Biso   1.000  H
  C379     1.0000 0.89910  0.90900  0.85600  Biso   1.000  C
  H339     1.0000 0.91010  0.86180  0.87690  Biso   1.000  H
  H340     1.0000 0.89490  0.88200  0.82630  Biso   1.000  H
  C380     1.0000 0.92600  0.98300  0.85800  Biso   1.000  C
  H341     1.0000 0.94860  0.96260  0.84750  Biso   1.000  H
  H342     1.0000 0.91330  0.03340  0.83960  Biso   1.000  H
  C381     1.0000 0.93600  0.01200  0.89700  Biso   1.000  C
  H343     1.0000 0.95820  0.97500  0.90880  Biso   1.000  H
  C382     1.0000 0.93300  0.06300  0.92800  Biso   1.000  C
  H344     1.0000 0.94180  0.11790  0.91740  Biso   1.000  H
  C383     1.0000 0.92500  0.10400  0.97400  Biso   1.000  C
  H345     1.0000 0.94990  0.10270  0.99590  Biso   1.000  H
  H346     1.0000 0.91740  0.16880  0.96950  Biso   1.000  H
  C384     1.0000 0.89500  0.05500  0.99200  Biso   1.000  C
  H347     1.0000 0.90160  0.05850  0.02440  Biso   1.000  H
  H348     1.0000 0.86960  0.08490  0.98230  Biso   1.000  H
  C385     1.0000 0.70700  0.35000  0.82850  Biso   1.000  C
  H349     1.0000 0.72110  0.32590  0.80720  Biso   1.000  H
  H350     1.0000 0.67980  0.32660  0.82090  Biso   1.000  H
  C386     1.0000 0.72630  0.31700  0.87460  Biso   1.000  C
  H351     1.0000 0.72330  0.25010  0.87650  Biso   1.000  H
  H352     1.0000 0.75430  0.33120  0.88020  Biso   1.000  H
  C387     1.0000 0.70800  0.36400  0.90900  Biso   1.000  C
  H353     1.0000 0.72470  0.41350  0.92390  Biso   1.000  H
  H354     1.0000 0.70260  0.31990  0.93070  Biso   1.000  H
  C388     1.0000 0.66900  0.40400  0.88200  Biso   1.000  C
  H355     1.0000 0.65570  0.35810  0.86120  Biso   1.000  H
  H356     1.0000 0.65170  0.42300  0.90110  Biso   1.000  H
  C389     1.0000 0.68100  0.48800  0.85700  Biso   1.000  C
  H357     1.0000 0.65750  0.51930  0.84090  Biso   1.000  H
  H358     1.0000 0.69580  0.53230  0.87810  Biso   1.000  H
  C390     1.0000 0.70600  0.45500  0.82600  Biso   1.000  C
  H359     1.0000 0.69470  0.47500  0.79630  Biso   1.000  H
  H360     1.0000 0.73260  0.47930  0.83470  Biso   1.000  H
  Zn28     1.0000 0.83028  0.63331  0.47890  Biso   1.000  Zn
  Zn29     1.0000 0.12138  0.38658  0.31820  Biso   1.000  Zn
  Zn30     1.0000 0.41737  0.62215  0.15834  Biso   1.000  Zn
  I73      1.0000 0.77380  0.71740  0.45940  Biso   1.000  I
  I74      1.0000 0.87521  0.64420  0.55480  Biso   1.000  I
  I75      1.0000 0.14524  0.37880  0.24952  Biso   1.000  I
  I76      1.0000 0.09785  0.25577  0.35812  Biso   1.000  I
  Zn31     1.0000 0.41810  0.36230  0.65830  Biso   1.000  Zn
  I77      1.0000 0.47403  0.34610  0.62191  Biso   1.000  I
  I78      1.0000 0.38229  0.25080  0.69370  Biso   1.000  I
  Zn32     1.0000 0.31990  0.85040  0.96620  Biso   1.000  Zn
  I79      1.0000 0.25750  0.76950  0.94110  Biso   1.000  I
  I80      1.0000 0.36850  0.81260  0.03650  Biso   1.000  I
  I81      1.0000 0.48090  0.64710  0.12610  Biso   1.000  I
  I82      1.0000 0.38736  0.73650  0.20020  Biso   1.000  I
  Zn33     1.0000 0.12350  0.58680  0.81590  Biso   1.000  Zn
  I83      1.0000 0.14830  0.58850  0.74970  Biso   1.000  I
  I84      1.0000 0.10465  0.73830  0.85360  Biso   1.000  I
  C391     1.0000 0.85010  0.69800  0.39430  Biso   1.000  C
  H361     1.0000 0.82420  0.72100  0.38840  Biso   1.000  H
  C392     1.0000 0.87130  0.71470  0.36510  Biso   1.000  C
  H362     1.0000 0.86100  0.74990  0.34010  Biso   1.000  H
  C393     1.0000 0.90650  0.68150  0.37100  Biso   1.000  C
  C394     1.0000 0.91980  0.62900  0.40600  Biso   1.000  C
  H363     1.0000 0.94510  0.60360  0.41150  Biso   1.000  H
  C395     1.0000 0.89390  0.61400  0.43390  Biso   1.000  C
  H364     1.0000 0.90130  0.56970  0.45620  Biso   1.000  H
  C396     1.0000 0.06260  0.52610  0.27960  Biso   1.000  C
  H365     1.0000 0.07490  0.52220  0.25560  Biso   1.000  H
  C397     1.0000 0.03070  0.58770  0.27640  Biso   1.000  C
  H366     1.0000 0.02210  0.62320  0.25100  Biso   1.000  H
  C398     1.0000 0.01380  0.59390  0.30910  Biso   1.000  C
  C399     1.0000 0.03040  0.54400  0.34610  Biso   1.000  C
  H367     1.0000 0.02290  0.55460  0.37290  Biso   1.000  H
  C400     1.0000 0.05720  0.48200  0.34240  Biso   1.000  C
  H368     1.0000 0.06310  0.43830  0.36480  Biso   1.000  H
  C401     1.0000 0.90270  0.98660  0.22310  Biso   1.000  C
  H369     1.0000 0.87990  0.02250  0.22070  Biso   1.000  H
  C402     1.0000 0.90680  0.91010  0.24980  Biso   1.000  C
  H370     1.0000 0.88650  0.89260  0.26380  Biso   1.000  H
  C403     1.0000 0.93980  0.86120  0.25570  Biso   1.000  C
  C404     1.0000 0.96770  0.88660  0.23120  Biso   1.000  C
  H371     1.0000 0.99050  0.85110  0.23320  Biso   1.000  H
  C405     1.0000 0.96200  0.96100  0.20500  Biso   1.000  C
  H372     1.0000 0.98150  0.97740  0.18970  Biso   1.000  H
  C406     1.0000 0.93120  0.69730  0.33700  Biso   1.000  C
  C407     1.0000 0.97960  0.65200  0.30670  Biso   1.000  C
  C408     1.0000 0.94510  0.77610  0.28290  Biso   1.000  C
  C409     1.0000 0.18430  0.40920  0.39790  Biso   1.000  C
  H373     1.0000 0.17810  0.34810  0.40390  Biso   1.000  H
  C410     1.0000 0.21290  0.45060  0.42350  Biso   1.000  C
  H374     1.0000 0.22680  0.41760  0.44770  Biso   1.000  H
  C411     1.0000 0.22440  0.54040  0.41780  Biso   1.000  C
  C412     1.0000 0.20370  0.58270  0.38110  Biso   1.000  C
  H375     1.0000 0.21020  0.64330  0.37460  Biso   1.000  H
  C413     1.0000 0.17500  0.54020  0.35520  Biso   1.000  C
  H376     1.0000 0.16160  0.57130  0.33010  Biso   1.000  H
  C414     1.0000 0.34710  0.39230  0.58270  Biso   1.000  C
  H377     1.0000 0.34350  0.32870  0.58640  Biso   1.000  H
  C415     1.0000 0.32350  0.43420  0.54910  Biso   1.000  C
  H378     1.0000 0.30310  0.40130  0.53120  Biso   1.000  H
  C416     1.0000 0.32970  0.52830  0.54100  Biso   1.000  C
  C417     1.0000 0.35740  0.56940  0.57160  Biso   1.000  C
  H379     1.0000 0.36130  0.63330  0.56980  Biso   1.000  H
  C418     1.0000 0.37840  0.52450  0.60260  Biso   1.000  C
  H380     1.0000 0.39830  0.55690  0.62160  Biso   1.000  H
  C419     1.0000 0.28490  0.95880  0.44630  Biso   1.000  C
  H381     1.0000 0.26710  0.99880  0.42870  Biso   1.000  H
  C420     1.0000 0.27670  0.86940  0.44510  Biso   1.000  C
  H382     1.0000 0.25240  0.84830  0.42920  Biso   1.000  H
  C421     1.0000 0.30280  0.80950  0.46640  Biso   1.000  C
  C422     1.0000 0.33710  0.84370  0.49200  Biso   1.000  C
  H383     1.0000 0.35550  0.80280  0.50820  Biso   1.000  H
  C423     1.0000 0.34430  0.93730  0.49400  Biso   1.000  C
  H384     1.0000 0.36760  0.96120  0.51090  Biso   1.000  H
  C424     1.0000 0.25640  0.58510  0.44660  Biso   1.000  C
  C425     1.0000 0.30700  0.57900  0.50490  Biso   1.000  C
  C426     1.0000 0.29340  0.70790  0.46870  Biso   1.000  C
  C427     1.0000 0.40700  0.49100  0.72840  Biso   1.000  C
  H385     1.0000 0.38800  0.44720  0.73170  Biso   1.000  H
  C428     1.0000 0.40990  0.57200  0.75280  Biso   1.000  C
  H386     1.0000 0.39080  0.58790  0.76870  Biso   1.000  H
  C429     1.0000 0.44150  0.62700  0.75280  Biso   1.000  C
  C430     1.0000 0.46540  0.60450  0.72820  Biso   1.000  C
  H387     1.0000 0.48740  0.64120  0.72730  Biso   1.000  H
  C431     1.0000 0.45800  0.52680  0.70340  Biso   1.000  C
  H388     1.0000 0.47560  0.50960  0.68570  Biso   1.000  H
  C432     1.0000 0.38950  0.88700  0.92580  Biso   1.000  C
  H389     1.0000 0.39680  0.93230  0.94760  Biso   1.000  H
  C433     1.0000 0.41150  0.87600  0.89530  Biso   1.000  C
  H390     1.0000 0.43270  0.91650  0.89580  Biso   1.000  H
  C434     1.0000 0.40500  0.81180  0.86530  Biso   1.000  C
  C435     1.0000 0.37070  0.76140  0.86300  Biso   1.000  C
  H391     1.0000 0.36190  0.71800  0.84070  Biso   1.000  H
  C436     1.0000 0.34980  0.78020  0.89670  Biso   1.000  C
  H392     1.0000 0.32700  0.74560  0.89690  Biso   1.000  H
  C437     1.0000 0.56320  0.95980  0.77430  Biso   1.000  C
  H393     1.0000 0.57470  0.96530  0.74980  Biso   1.000  H
  C438     1.0000 0.53200  0.90520  0.77250  Biso   1.000  C
  H394     1.0000 0.52230  0.87190  0.74670  Biso   1.000  H
  C439     1.0000 0.51360  0.89630  0.80680  Biso   1.000  C
  C440     1.0000 0.52930  0.93790  0.84410  Biso   1.000  C
  H395     1.0000 0.51850  0.93090  0.86910  Biso   1.000  H
  C441     1.0000 0.56290  0.99290  0.84520  Biso   1.000  C
  H396     1.0000 0.57480  0.02090  0.87170  Biso   1.000  H
  C442     1.0000 0.44690  0.70850  0.78240  Biso   1.000  C
  C443     1.0000 0.42950  0.79410  0.83550  Biso   1.000  C
  C444     1.0000 0.48030  0.83330  0.80630  Biso   1.000  C
  C445     1.0000 0.28580  0.02210  0.94880  Biso   1.000  C
  H397     1.0000 0.26800  0.98000  0.93270  Biso   1.000  H
  C446     1.0000 0.27700  0.11850  0.94550  Biso   1.000  C
  H398     1.0000 0.25450  0.14020  0.92600  Biso   1.000  H
  C447     1.0000 0.30200  0.17860  0.97140  Biso   1.000  C
  C448     1.0000 0.33590  0.14450  0.99580  Biso   1.000  C
  H399     1.0000 0.35450  0.18340  0.01300  Biso   1.000  H
  C449     1.0000 0.34180  0.05160  0.99440  Biso   1.000  C
  H400     1.0000 0.36580  0.02900  0.01020  Biso   1.000  H
  C450     1.0000 0.38280  0.46960  0.10390  Biso   1.000  C
  H401     1.0000 0.40280  0.43920  0.12360  Biso   1.000  H
  C451     1.0000 0.36120  0.41930  0.06920  Biso   1.000  C
  H402     1.0000 0.36730  0.35770  0.06410  Biso   1.000  H
  C452     1.0000 0.33030  0.46430  0.04270  Biso   1.000  C
  C453     1.0000 0.32490  0.55470  0.04920  Biso   1.000  C
  H403     1.0000 0.30480  0.58690  0.03040  Biso   1.000  H
  C454     1.0000 0.34840  0.59960  0.08290  Biso   1.000  C
  H404     1.0000 0.34460  0.66310  0.08670  Biso   1.000  H
  C455     1.0000 0.18660  0.57430  0.89540  Biso   1.000  C
  H405     1.0000 0.18160  0.63740  0.89860  Biso   1.000  H
  C456     1.0000 0.21630  0.53500  0.92520  Biso   1.000  C
  H406     1.0000 0.23120  0.56960  0.94810  Biso   1.000  H
  C457     1.0000 0.22320  0.44500  0.92040  Biso   1.000  C
  C458     1.0000 0.19940  0.39630  0.88640  Biso   1.000  C
  H407     1.0000 0.20270  0.33270  0.88250  Biso   1.000  H
  C459     1.0000 0.17080  0.44600  0.85880  Biso   1.000  C
  H408     1.0000 0.15480  0.41450  0.83550  Biso   1.000  H
  C460     1.0000 0.29380  0.27710  0.97210  Biso   1.000  C
  C461     1.0000 0.30630  0.41250  0.00750  Biso   1.000  C
  C462     1.0000 0.25650  0.39880  0.95140  Biso   1.000  C
  N97      1.0000 0.86200  0.65260  0.43170  Biso   1.000  N
  N98      1.0000 0.07560  0.47640  0.31220  Biso   1.000  N
  N99      1.0000 0.92930  0.01280  0.20010  Biso   1.000  N
  N100     1.0000 0.95860  0.63800  0.33850  Biso   1.000  N
  N101     1.0000 0.97410  0.72170  0.27950  Biso   1.000  N
  N102     1.0000 0.92280  0.76710  0.31090  Biso   1.000  N
  N103     1.0000 0.16340  0.45250  0.36280  Biso   1.000  N
  N104     1.0000 0.37440  0.43330  0.61040  Biso   1.000  N
  N105     1.0000 0.31640  0.99410  0.47060  Biso   1.000  N
  N106     1.0000 0.27480  0.53590  0.48050  Biso   1.000  N
  N107     1.0000 0.31640  0.66190  0.50090  Biso   1.000  N
  N108     1.0000 0.26380  0.67420  0.44000  Biso   1.000  N
  N109     1.0000 0.42780  0.47620  0.70340  Biso   1.000  N
  N110     1.0000 0.35960  0.83920  0.92580  Biso   1.000  N
  N111     1.0000 0.57810  0.00690  0.81120  Biso   1.000  N
  N112     1.0000 0.42420  0.71790  0.81070  Biso   1.000  N
  N113     1.0000 0.45970  0.85220  0.83430  Biso   1.000  N
  N114     1.0000 0.47430  0.76880  0.77710  Biso   1.000  N
  N115     1.0000 0.31750  0.99120  0.97330  Biso   1.000  N
  N116     1.0000 0.37670  0.55600  0.11060  Biso   1.000  N
  N117     1.0000 0.16490  0.53070  0.86300  Biso   1.000  N
  N118     1.0000 0.31740  0.32410  0.00280  Biso   1.000  N
  N119     1.0000 0.27700  0.45350  0.98190  Biso   1.000  N
  N120     1.0000 0.26300  0.31200  0.94450  Biso   1.000  N
  C463     1.0000 0.26110  0.15400  0.83900  Biso   1.000  C
  N121     1.0000 0.28550  0.08530  0.82980  Biso   1.000  N
  N122     1.0000 0.22730  0.12200  0.84550  Biso   1.000  N
  C464     1.0000 0.26350  0.99700  0.82830  Biso   1.000  C
  C465     1.0000 0.22870  0.02900  0.83850  Biso   1.000  C
  C466     1.0000 0.20260  0.96800  0.84130  Biso   1.000  C
  H409     1.0000 0.17860  0.98400  0.84840  Biso   1.000  H
  C467     1.0000 0.21060  0.88200  0.83390  Biso   1.000  C
  H410     1.0000 0.19130  0.83870  0.83680  Biso   1.000  H
  C468     1.0000 0.24420  0.84600  0.82230  Biso   1.000  C
  H411     1.0000 0.24760  0.78360  0.81530  Biso   1.000  H
  C469     1.0000 0.27250  0.91600  0.82250  Biso   1.000  C
  H412     1.0000 0.29770  0.90180  0.81820  Biso   1.000  H
  C470     1.0000 0.27350  0.24700  0.84380  Biso   1.000  C
  N123     1.0000 0.24730  0.31900  0.81940  Biso   1.000  N
  N124     1.0000 0.30610  0.27000  0.87090  Biso   1.000  N
  C471     1.0000 0.27060  0.39900  0.83650  Biso   1.000  C
  C472     1.0000 0.30270  0.36900  0.86670  Biso   1.000  C
  C473     1.0000 0.32850  0.43200  0.88950  Biso   1.000  C
  H413     1.0000 0.35050  0.41210  0.91020  Biso   1.000  H
  C474     1.0000 0.32210  0.52510  0.88210  Biso   1.000  C
  H414     1.0000 0.33980  0.56840  0.89770  Biso   1.000  H
  C475     1.0000 0.29000  0.55470  0.85190  Biso   1.000  C
  H415     1.0000 0.28570  0.61820  0.84690  Biso   1.000  H
  C476     1.0000 0.26420  0.49100  0.82910  Biso   1.000  C
  H416     1.0000 0.24230  0.51160  0.80840  Biso   1.000  H
  C477     1.0000 0.32280  0.09900  0.81440  Biso   1.000  C
  H417     1.0000 0.33850  0.04260  0.81960  Biso   1.000  H
  H418     1.0000 0.33780  0.14900  0.83120  Biso   1.000  H
  C478     1.0000 0.31500  0.12300  0.76610  Biso   1.000  C
  H419     1.0000 0.34010  0.12850  0.75700  Biso   1.000  H
  H420     1.0000 0.30050  0.07180  0.74950  Biso   1.000  H
  C479     1.0000 0.29450  0.20100  0.75610  Biso   1.000  C
  H421     1.0000 0.30940  0.25590  0.75850  Biso   1.000  H
  C480     1.0000 0.25190  0.21300  0.74200  Biso   1.000  C
  H422     1.0000 0.23700  0.16200  0.72980  Biso   1.000  H
  C481     1.0000 0.23130  0.30000  0.74570  Biso   1.000  C
  H423     1.0000 0.20850  0.30330  0.72150  Biso   1.000  H
  H424     1.0000 0.24870  0.35120  0.74270  Biso   1.000  H
  C482     1.0000 0.21810  0.31000  0.78730  Biso   1.000  C
  H425     1.0000 0.20100  0.36360  0.78570  Biso   1.000  H
  H426     1.0000 0.20290  0.25500  0.79200  Biso   1.000  H
  C483     1.0000 0.45800  0.51200  0.00400  Biso   1.000  C
  H427     1.0000 0.48210  0.54690  0.00410  Biso   1.000  H
  H428     1.0000 0.46080  0.47800  0.03100  Biso   1.000  H
  C484     1.0000 0.42300  0.58000  0.99940  Biso   1.000  C
  H429     1.0000 0.39880  0.54580  0.99660  Biso   1.000  H
  H430     1.0000 0.42680  0.61940  0.02530  Biso   1.000  H
  C485     1.0000 0.42300  0.63700  0.95900  Biso   1.000  C
  H431     1.0000 0.44800  0.67000  0.96160  Biso   1.000  H
  H432     1.0000 0.40200  0.68320  0.95550  Biso   1.000  H
  C486     1.0000 0.41700  0.57400  0.91930  Biso   1.000  C
  H433     1.0000 0.39030  0.54710  0.91530  Biso   1.000  H
  H434     1.0000 0.41760  0.61070  0.89330  Biso   1.000  H
  C487     1.0000 0.44600  0.49600  0.92200  Biso   1.000  C
  H435     1.0000 0.43730  0.45310  0.89820  Biso   1.000  H
  H436     1.0000 0.47130  0.52170  0.91950  Biso   1.000  H
  C488     1.0000 0.45100  0.44500  0.96500  Biso   1.000  C
  H437     1.0000 0.47320  0.40260  0.96790  Biso   1.000  H
  H438     1.0000 0.42740  0.40830  0.96530  Biso   1.000  H
  C489     1.0000 0.55300  0.29800  0.20900  Biso   1.000  C
  H439     1.0000 0.54520  0.33210  0.23290  Biso   1.000  H
  H440     1.0000 0.58170  0.29140  0.21590  Biso   1.000  H
  C490     1.0000 0.53300  0.20400  0.20300  Biso   1.000  C
  H441     1.0000 0.50490  0.21040  0.19590  Biso   1.000  H
  H442     1.0000 0.54080  0.16700  0.22970  Biso   1.000  H
  C491     1.0000 0.54800  0.15800  0.16500  Biso   1.000  C
  H443     1.0000 0.57590  0.17190  0.16660  Biso   1.000  H
  H444     1.0000 0.54460  0.09120  0.16510  Biso   1.000  H
  C492     1.0000 0.52300  0.20200  0.12500  Biso   1.000  C
  H445     1.0000 0.50090  0.16070  0.11260  Biso   1.000  H
  H446     1.0000 0.53800  0.21330  0.10260  Biso   1.000  H
  C493     1.0000 0.50690  0.29300  0.13900  Biso   1.000  C
  H447     1.0000 0.48700  0.28010  0.15600  Biso   1.000  H
  H448     1.0000 0.49450  0.32790  0.11280  Biso   1.000  H
  C494     1.0000 0.54000  0.34900  0.16600  Biso   1.000  C
  H449     1.0000 0.56180  0.35440  0.15080  Biso   1.000  H
  H450     1.0000 0.53090  0.41110  0.17120  Biso   1.000  H
  I85      1.0000 0.76918  0.72770  0.45640  Biso   1.000  I
  I86      1.0000 0.87370  0.65440  0.55030  Biso   1.000  I
  I87      1.0000 0.14420  0.40130  0.24570  Biso   1.000  I
  I88      1.0000 0.10980  0.22900  0.34150  Biso   1.000  I
  Zn34     1.0000 0.40740  0.37600  0.65730  Biso   1.000  Zn
  I89      1.0000 0.46680  0.31980  0.62960  Biso   1.000  I
  I90      1.0000 0.36700  0.26100  0.69340  Biso   1.000  I
  Zn35     1.0000 0.33170  0.85520  0.97790  Biso   1.000  Zn
  I91      1.0000 0.27113  0.76010  0.95621  Biso   1.000  I
  I92      1.0000 0.38070  0.83270  0.04793  Biso   1.000  I
  I93      1.0000 0.46950  0.64550  0.12390  Biso   1.000  I
  I94      1.0000 0.37750  0.73320  0.19240  Biso   1.000  I
  Zn36     1.0000 0.12510  0.61420  0.81660  Biso   1.000  Zn
  I95      1.0000 0.14990  0.59840  0.74230  Biso   1.000  I
  I96      1.0000 0.10530  0.73140  0.84380  Biso   1.000  I
  C495     1.0000 0.35010  0.45200  0.90600  Biso   1.000  C
  N125     1.0000 0.36150  0.44100  0.86440  Biso   1.000  N
  N126     1.0000 0.32150  0.49800  0.90400  Biso   1.000  N
  C496     1.0000 0.33120  0.49700  0.83660  Biso   1.000  C
  C497     1.0000 0.30570  0.52500  0.86210  Biso   1.000  C
  C498     1.0000 0.27290  0.57600  0.84400  Biso   1.000  C
  H451     1.0000 0.25550  0.59490  0.86150  Biso   1.000  H
  C499     1.0000 0.26570  0.59800  0.80000  Biso   1.000  C
  H452     1.0000 0.24330  0.63250  0.78790  Biso   1.000  H
  C500     1.0000 0.29110  0.57000  0.77470  Biso   1.000  C
  H453     1.0000 0.28620  0.58520  0.74490  Biso   1.000  H
  C501     1.0000 0.32390  0.52000  0.79290  Biso   1.000  C
  H454     1.0000 0.34130  0.50030  0.77540  Biso   1.000  H
  C502     1.0000 0.37760  0.41000  0.94100  Biso   1.000  C
  N127     1.0000 0.39230  0.45700  0.97880  Biso   1.000  N
  N128     1.0000 0.38560  0.32300  0.94240  Biso   1.000  N
  C503     1.0000 0.41850  0.38600  0.01180  Biso   1.000  C
  C504     1.0000 0.41350  0.30800  0.98620  Biso   1.000  C
  C505     1.0000 0.43220  0.22800  0.00170  Biso   1.000  C
  H455     1.0000 0.42880  0.17440  0.98420  Biso   1.000  H
  C506     1.0000 0.45580  0.22500  0.04280  Biso   1.000  C
  H456     1.0000 0.46860  0.17010  0.05340  Biso   1.000  H
  C507     1.0000 0.46080  0.30300  0.06840  Biso   1.000  C
  H457     1.0000 0.47690  0.30140  0.09650  Biso   1.000  H
  C508     1.0000 0.44210  0.38400  0.05290  Biso   1.000  C
  H458     1.0000 0.44550  0.43710  0.07040  Biso   1.000  H
  C509     1.0000 0.39910  0.40900  0.85600  Biso   1.000  C
  H459     1.0000 0.41010  0.36180  0.87690  Biso   1.000  H
  H460     1.0000 0.39490  0.38200  0.82630  Biso   1.000  H
  C510     1.0000 0.42600  0.48300  0.85800  Biso   1.000  C
  H461     1.0000 0.44860  0.46260  0.84750  Biso   1.000  H
  H462     1.0000 0.41330  0.53340  0.83960  Biso   1.000  H
  C511     1.0000 0.43600  0.51200  0.89700  Biso   1.000  C
  H463     1.0000 0.45820  0.47500  0.90880  Biso   1.000  H
  C512     1.0000 0.43300  0.56300  0.92800  Biso   1.000  C
  H464     1.0000 0.44180  0.61790  0.91740  Biso   1.000  H
  C513     1.0000 0.42500  0.60400  0.97400  Biso   1.000  C
  H465     1.0000 0.44990  0.60270  0.99590  Biso   1.000  H
  H466     1.0000 0.41740  0.66880  0.96950  Biso   1.000  H
  C514     1.0000 0.39500  0.55500  0.99200  Biso   1.000  C
  H467     1.0000 0.40160  0.55850  0.02440  Biso   1.000  H
  H468     1.0000 0.36960  0.58490  0.98230  Biso   1.000  H
  C515     1.0000 0.20700  0.85000  0.82850  Biso   1.000  C
  H469     1.0000 0.22110  0.82590  0.80720  Biso   1.000  H
  H470     1.0000 0.17980  0.82660  0.82090  Biso   1.000  H
  C516     1.0000 0.22630  0.81700  0.87460  Biso   1.000  C
  H471     1.0000 0.22330  0.75010  0.87650  Biso   1.000  H
  H472     1.0000 0.25430  0.83120  0.88020  Biso   1.000  H
  C517     1.0000 0.20800  0.86400  0.90900  Biso   1.000  C
  H473     1.0000 0.22470  0.91350  0.92390  Biso   1.000  H
  H474     1.0000 0.20260  0.81990  0.93070  Biso   1.000  H
  C518     1.0000 0.16900  0.90400  0.88200  Biso   1.000  C
  H475     1.0000 0.15570  0.85810  0.86120  Biso   1.000  H
  H476     1.0000 0.15170  0.92300  0.90110  Biso   1.000  H
  C519     1.0000 0.18100  0.98800  0.85700  Biso   1.000  C
  H477     1.0000 0.15750  0.01930  0.84090  Biso   1.000  H
  H478     1.0000 0.19580  0.03230  0.87810  Biso   1.000  H
  C520     1.0000 0.20600  0.95500  0.82600  Biso   1.000  C
  H479     1.0000 0.19470  0.97500  0.79630  Biso   1.000  H
  H480     1.0000 0.23260  0.97930  0.83470  Biso   1.000  H
