data_image0
_cell_length_a       34.8299
_cell_length_b       14.9133
_cell_length_c       31.5387
_cell_angle_alpha    90
_cell_angle_beta     102.403
_cell_angle_gamma    90

_symmetry_space_group_name_H-M    "P 1"
_symmetry_int_tables_number       1

loop_
  _symmetry_equiv_pos_as_xyz
  'x, y, z'

loop_
  _atom_site_label
  _atom_site_occupancy
  _atom_site_fract_x
  _atom_site_fract_y
  _atom_site_fract_z
  _atom_site_thermal_displace_type
  _atom_site_B_iso_or_equiv
  _atom_site_type_symbol
  Zn1      1.0000 0.17160  0.37650  0.52205  Biso   1.000  Zn
  I1       1.0000 0.23359  0.46690  0.54588  Biso   1.000  I
  I2       1.0000 0.12596  0.39640  0.44794  Biso   1.000  I
  I3       1.0000 0.85760  0.14430  0.75810  Biso   1.000  I
  I4       1.0000 0.89370  0.98980  0.65160  Biso   1.000  I
  Zn2      1.0000 0.07920  0.61700  0.34610  Biso   1.000  Zn
  I5       1.0000 0.11320  0.49210  0.31650  Biso   1.000  I
  I6       1.0000 0.01770  0.59920  0.37872  Biso   1.000  I
  Zn3      1.0000 0.16950  0.08780  0.01850  Biso   1.000  Zn
  I7       1.0000 0.12250  0.06750  0.94641  Biso   1.000  I
  I8       1.0000 0.23040  0.99290  0.04302  Biso   1.000  I
  I9       1.0000 0.35130  0.81420  0.25950  Biso   1.000  I
  I10      1.0000 0.39286  0.97370  0.14814  Biso   1.000  I
  Zn4      1.0000 0.07682  0.84700  0.84698  Biso   1.000  Zn
  I11      1.0000 0.11039  0.96853  0.81301  Biso   1.000  I
  I12      1.0000 0.01679  0.86460  0.87962  Biso   1.000  I
  Zn5      1.0000 0.87479  0.13859  0.69006  Biso   1.000  Zn
  Zn6      1.0000 0.37369  0.82400  0.18948  Biso   1.000  Zn
  N1       1.0000 0.14180  0.39150  0.57120  Biso   1.000  N
  C1       1.0000 0.10870  0.35300  0.56720  Biso   1.000  C
  H1       1.0000 0.10100  0.31230  0.54360  Biso   1.000  H
  C2       1.0000 0.08220  0.36600  0.59570  Biso   1.000  C
  H2       1.0000 0.05690  0.33930  0.59010  Biso   1.000  H
  C3       1.0000 0.09510  0.41930  0.63130  Biso   1.000  C
  C4       1.0000 0.13240  0.46070  0.63750  Biso   1.000  C
  H3       1.0000 0.14220  0.49820  0.66170  Biso   1.000  H
  C5       1.0000 0.15320  0.44370  0.60680  Biso   1.000  C
  H4       1.0000 0.17830  0.47120  0.61050  Biso   1.000  H
  N2       1.0000 0.92240  0.22010  0.69260  Biso   1.000  N
  C6       1.0000 0.93990  0.22600  0.65960  Biso   1.000  C
  H5       1.0000 0.93010  0.18910  0.63520  Biso   1.000  H
  C7       1.0000 0.97060  0.28000  0.65740  Biso   1.000  C
  H6       1.0000 0.98060  0.28300  0.63170  Biso   1.000  H
  C8       1.0000 0.98710  0.33100  0.69310  Biso   1.000  C
  C9       1.0000 0.96810  0.32900  0.72760  Biso   1.000  C
  H7       1.0000 0.97740  0.36630  0.75210  Biso   1.000  H
  C10      1.0000 0.93550  0.27330  0.72730  Biso   1.000  C
  H8       1.0000 0.92290  0.27320  0.75110  Biso   1.000  H
  N3       1.0000 0.06910  0.74420  0.79920  Biso   1.000  N
  C11      1.0000 0.03910  0.69310  0.79440  Biso   1.000  C
  H9       1.0000 0.01960  0.70830  0.81010  Biso   1.000  H
  C12      1.0000 0.03230  0.61740  0.76830  Biso   1.000  C
  H10      1.0000 0.00930  0.58200  0.76680  Biso   1.000  H
  C13      1.0000 0.05900  0.59580  0.74550  Biso   1.000  C
  C14      1.0000 0.09120  0.65050  0.74850  Biso   1.000  C
  H11      1.0000 0.11050  0.63980  0.73190  Biso   1.000  H
  C15      1.0000 0.06980  0.43430  0.66200  Biso   1.000  C
  C16      1.0000 0.09400  0.72310  0.77720  Biso   1.000  C
  H12      1.0000 0.11670  0.75970  0.78050  Biso   1.000  H
  N4       1.0000 0.04110  0.37600  0.66230  Biso   1.000  N
  C17      1.0000 0.02030  0.39240  0.69220  Biso   1.000  C
  N5       1.0000 0.02600  0.45840  0.72120  Biso   1.000  N
  C18      1.0000 0.05430  0.51570  0.71650  Biso   1.000  C
  N6       1.0000 0.07760  0.50610  0.68820  Biso   1.000  N
  N7       1.0000 0.33240  0.70390  0.64510  Biso   1.000  N
  C19      1.0000 0.31200  0.66070  0.60860  Biso   1.000  C
  H13      1.0000 0.31880  0.60060  0.60330  Biso   1.000  H
  C20      1.0000 0.28260  0.70160  0.58010  Biso   1.000  C
  H14      1.0000 0.26790  0.66930  0.55610  Biso   1.000  H
  C21      1.0000 0.27420  0.78950  0.58610  Biso   1.000  C
  C22      1.0000 0.29510  0.83440  0.62190  Biso   1.000  C
  H15      1.0000 0.28960  0.89540  0.62670  Biso   1.000  H
  C23      1.0000 0.32440  0.78900  0.65080  Biso   1.000  C
  H16      1.0000 0.33900  0.82010  0.67530  Biso   1.000  H
  N8       1.0000 0.12100  0.68260  0.39260  Biso   1.000  N
  C24      1.0000 0.14930  0.64250  0.41960  Biso   1.000  C
  H17      1.0000 0.15340  0.58030  0.41580  Biso   1.000  H
  C25      1.0000 0.17420  0.68810  0.45430  Biso   1.000  C
  H18      1.0000 0.19540  0.65780  0.47270  Biso   1.000  H
  C26      1.0000 0.16720  0.77540  0.46060  Biso   1.000  C
  C27      1.0000 0.13710  0.81850  0.43250  Biso   1.000  C
  H19      1.0000 0.13370  0.88160  0.43400  Biso   1.000  H
  C28      1.0000 0.11190  0.76710  0.40190  Biso   1.000  C
  H20      1.0000 0.08760  0.79210  0.38720  Biso   1.000  H
  N9       1.0000 0.18570  0.23970  0.52790  Biso   1.000  N
  C29      1.0000 0.16170  0.18410  0.50420  Biso   1.000  C
  H21      1.0000 0.13920  0.20770  0.48480  Biso   1.000  H
  C30      1.0000 0.16680  0.09410  0.50560  Biso   1.000  C
  H22      1.0000 0.14790  0.05710  0.48750  Biso   1.000  H
  C31      1.0000 0.19820  0.05560  0.53220  Biso   1.000  C
  C32      1.0000 0.22520  0.11470  0.55810  Biso   1.000  C
  H23      1.0000 0.24850  0.09340  0.57680  Biso   1.000  H
  C33      1.0000 0.21560  0.20930  0.55460  Biso   1.000  C
  H24      1.0000 0.23220  0.25030  0.57310  Biso   1.000  H
  C34      1.0000 0.24220  0.83540  0.55480  Biso   1.000  C
  N10      1.0000 0.22170  0.78370  0.52220  Biso   1.000  N
  C35      1.0000 0.19170  0.82730  0.49660  Biso   1.000  C
  N11      1.0000 0.18220  0.91350  0.50000  Biso   1.000  N
  C36      1.0000 0.20660  0.95720  0.53220  Biso   1.000  C
  N12      1.0000 0.23590  0.92350  0.56130  Biso   1.000  N
  N13      1.0000 0.07020  0.71940  0.29940  Biso   1.000  N
  C37      1.0000 0.09730  0.73980  0.27630  Biso   1.000  C
  H25      1.0000 0.11980  0.70240  0.27900  Biso   1.000  H
  C38      1.0000 0.09360  0.81470  0.24840  Biso   1.000  C
  H26      1.0000 0.11330  0.82870  0.23280  Biso   1.000  H
  C39      1.0000 0.06000  0.86750  0.24470  Biso   1.000  C
  C40      1.0000 0.03090  0.84390  0.26840  Biso   1.000  C
  H27      1.0000 0.00760  0.87880  0.26530  Biso   1.000  H
  C41      1.0000 0.03620  0.77150  0.29550  Biso   1.000  C
  H28      1.0000 0.01700  0.75670  0.31160  Biso   1.000  H
  N14      1.0000 0.14090  0.06710  0.06990  Biso   1.000  N
  C42      1.0000 0.10510  0.09940  0.06330  Biso   1.000  C
  H29      1.0000 0.09560  0.13380  0.03790  Biso   1.000  H
  C43      1.0000 0.08070  0.08520  0.09190  Biso   1.000  C
  H30      1.0000 0.05460  0.10740  0.08520  Biso   1.000  H
  C44      1.0000 0.09390  0.04010  0.12910  Biso   1.000  C
  C45      1.0000 0.13170  0.01070  0.13740  Biso   1.000  C
  H31      1.0000 0.14250  0.98020  0.16380  Biso   1.000  H
  C46      1.0000 0.15480  0.02600  0.10660  Biso   1.000  C
  H32      1.0000 0.18130  0.00580  0.11260  Biso   1.000  H
  N15      1.0000 0.92310  0.24320  0.19260  Biso   1.000  N
  C47      1.0000 0.93830  0.19380  0.22520  Biso   1.000  C
  H33      1.0000 0.92740  0.19810  0.25030  Biso   1.000  H
  C48      1.0000 0.96870  0.13540  0.22660  Biso   1.000  C
  H34      1.0000 0.97710  0.09710  0.25090  Biso   1.000  H
  C49      1.0000 0.98650  0.13340  0.19300  Biso   1.000  C
  C50      1.0000 0.97040  0.18400  0.15720  Biso   1.000  C
  H35      1.0000 0.97990  0.17990  0.13120  Biso   1.000  H
  C51      1.0000 0.94000  0.24220  0.16010  Biso   1.000  C
  H36      1.0000 0.93110  0.28320  0.13700  Biso   1.000  H
  C52      1.0000 0.05440  0.94970  0.21670  Biso   1.000  C
  N16      1.0000 0.07710  0.95720  0.18940  Biso   1.000  N
  C53      1.0000 0.06900  0.02640  0.16160  Biso   1.000  C
  N17      1.0000 0.03980  0.08470  0.16080  Biso   1.000  N
  C54      1.0000 0.01990  0.07190  0.19170  Biso   1.000  C
  N18      1.0000 0.02620  0.00600  0.22090  Biso   1.000  N
  N19      1.0000 0.33260  0.75830  0.14290  Biso   1.000  N
  C55      1.0000 0.31200  0.80080  0.10800  Biso   1.000  C
  H37      1.0000 0.31800  0.86180  0.10350  Biso   1.000  H
  C56      1.0000 0.28250  0.75920  0.07810  Biso   1.000  C
  H38      1.0000 0.26830  0.79130  0.05370  Biso   1.000  H
  C57      1.0000 0.27370  0.66950  0.08430  Biso   1.000  C
  C58      1.0000 0.29580  0.62640  0.11960  Biso   1.000  C
  H39      1.0000 0.29200  0.56450  0.12440  Biso   1.000  H
  C59      1.0000 0.32400  0.67600  0.14810  Biso   1.000  C
  H40      1.0000 0.33800  0.64650  0.17350  Biso   1.000  H
  N20      1.0000 0.18570  0.22120  0.02860  Biso   1.000  N
  C60      1.0000 0.21590  0.25880  0.05560  Biso   1.000  C
  H41      1.0000 0.23460  0.22100  0.07350  Biso   1.000  H
  C61      1.0000 0.22130  0.34860  0.05860  Biso   1.000  C
  H42      1.0000 0.24200  0.37190  0.08050  Biso   1.000  H
  C62      1.0000 0.19830  0.40560  0.03200  Biso   1.000  C
  C63      1.0000 0.16640  0.36840  0.00250  Biso   1.000  C
  H43      1.0000 0.14870  0.40620  0.98330  Biso   1.000  H
  N21      1.0000 0.12080  0.78040  0.89170  Biso   1.000  N
  C64      1.0000 0.16080  0.27750  0.00130  Biso   1.000  C
  H44      1.0000 0.13920  0.25290  0.98100  Biso   1.000  H
  C65      1.0000 0.15270  0.81860  0.91640  Biso   1.000  C
  H45      1.0000 0.15980  0.87720  0.90920  Biso   1.000  H
  C66      1.0000 0.17510  0.77690  0.95110  Biso   1.000  C
  H46      1.0000 0.19640  0.80780  0.96910  Biso   1.000  H
  C67      1.0000 0.16670  0.68760  0.96040  Biso   1.000  C
  C68      1.0000 0.13530  0.64880  0.93250  Biso   1.000  C
  H47      1.0000 0.12760  0.58910  0.93730  Biso   1.000  H
  C69      1.0000 0.24110  0.62460  0.05370  Biso   1.000  C
  C70      1.0000 0.11510  0.69630  0.89780  Biso   1.000  C
  H48      1.0000 0.09580  0.66580  0.87700  Biso   1.000  H
  N22      1.0000 0.23470  0.53910  0.05900  Biso   1.000  N
  C71      1.0000 0.20460  0.50320  0.03030  Biso   1.000  C
  N23      1.0000 0.18080  0.55090  0.00040  Biso   1.000  N
  C72      1.0000 0.19060  0.63490  0.99690  Biso   1.000  C
  N24      1.0000 0.22100  0.67610  0.02240  Biso   1.000  N
  Zn7      1.0000 0.18730  0.37620  0.53640  Biso   1.000  Zn
  I13      1.0000 0.25030  0.45210  0.56680  Biso   1.000  I
  I14      1.0000 0.14430  0.41870  0.45880  Biso   1.000  I
  I15      1.0000 0.85050  0.16320  0.76550  Biso   1.000  I
  I16      1.0000 0.88530  0.99560  0.66110  Biso   1.000  I
  Zn8      1.0000 0.08510  0.61550  0.34100  Biso   1.000  Zn
  I17      1.0000 0.12490  0.50230  0.30720  Biso   1.000  I
  I18      1.0000 0.02640  0.58330  0.37090  Biso   1.000  I
  Zn9      1.0000 0.17800  0.08280  0.02800  Biso   1.000  Zn
  I19      1.0000 0.13770  0.04940  0.95230  Biso   1.000  I
  I20      1.0000 0.24350  0.00550  0.05760  Biso   1.000  I
  I21      1.0000 0.37991  0.97242  0.16537  Biso   1.000  I
  I22      1.0000 0.35370  0.80200  0.26210  Biso   1.000  I
  Zn10     1.0000 0.09200  0.85230  0.83730  Biso   1.000  Zn
  I23      1.0000 0.13270  0.95900  0.80332  Biso   1.000  I
  I24      1.0000 0.03230  0.89020  0.86750  Biso   1.000  I
  Zn11     1.0000 0.67160  0.87650  0.52205  Biso   1.000  Zn
  I25      1.0000 0.73359  0.96690  0.54588  Biso   1.000  I
  I26      1.0000 0.62596  0.89640  0.44794  Biso   1.000  I
  I27      1.0000 0.35760  0.64430  0.75810  Biso   1.000  I
  I28      1.0000 0.39370  0.48980  0.65160  Biso   1.000  I
  Zn12     1.0000 0.57920  0.11700  0.34610  Biso   1.000  Zn
  I29      1.0000 0.61320  0.99210  0.31650  Biso   1.000  I
  I30      1.0000 0.51770  0.09920  0.37872  Biso   1.000  I
  Zn13     1.0000 0.66950  0.58780  0.01850  Biso   1.000  Zn
  I31      1.0000 0.62250  0.56750  0.94641  Biso   1.000  I
  I32      1.0000 0.73040  0.49290  0.04302  Biso   1.000  I
  I33      1.0000 0.85130  0.31420  0.25950  Biso   1.000  I
  I34      1.0000 0.89286  0.47370  0.14814  Biso   1.000  I
  Zn14     1.0000 0.57682  0.34700  0.84698  Biso   1.000  Zn
  I35      1.0000 0.61039  0.46853  0.81301  Biso   1.000  I
  I36      1.0000 0.51679  0.36460  0.87962  Biso   1.000  I
  Zn15     1.0000 0.37479  0.63859  0.69006  Biso   1.000  Zn
  Zn16     1.0000 0.87369  0.32400  0.18948  Biso   1.000  Zn
  N25      1.0000 0.64180  0.89150  0.57120  Biso   1.000  N
  C73      1.0000 0.60870  0.85300  0.56720  Biso   1.000  C
  H49      1.0000 0.60100  0.81230  0.54360  Biso   1.000  H
  C74      1.0000 0.58220  0.86600  0.59570  Biso   1.000  C
  H50      1.0000 0.55690  0.83930  0.59010  Biso   1.000  H
  C75      1.0000 0.59510  0.91930  0.63130  Biso   1.000  C
  C76      1.0000 0.63240  0.96070  0.63750  Biso   1.000  C
  H51      1.0000 0.64220  0.99820  0.66170  Biso   1.000  H
  C77      1.0000 0.65320  0.94370  0.60680  Biso   1.000  C
  H52      1.0000 0.67830  0.97120  0.61050  Biso   1.000  H
  N26      1.0000 0.42240  0.72010  0.69260  Biso   1.000  N
  C78      1.0000 0.43990  0.72600  0.65960  Biso   1.000  C
  H53      1.0000 0.43010  0.68910  0.63520  Biso   1.000  H
  C79      1.0000 0.47060  0.78000  0.65740  Biso   1.000  C
  H54      1.0000 0.48060  0.78300  0.63170  Biso   1.000  H
  C80      1.0000 0.48710  0.83100  0.69310  Biso   1.000  C
  C81      1.0000 0.46810  0.82900  0.72760  Biso   1.000  C
  H55      1.0000 0.47740  0.86630  0.75210  Biso   1.000  H
  C82      1.0000 0.43550  0.77330  0.72730  Biso   1.000  C
  H56      1.0000 0.42290  0.77320  0.75110  Biso   1.000  H
  N27      1.0000 0.56910  0.24420  0.79920  Biso   1.000  N
  C83      1.0000 0.53910  0.19310  0.79440  Biso   1.000  C
  H57      1.0000 0.51960  0.20830  0.81010  Biso   1.000  H
  C84      1.0000 0.53230  0.11740  0.76830  Biso   1.000  C
  H58      1.0000 0.50930  0.08200  0.76680  Biso   1.000  H
  C85      1.0000 0.55900  0.09580  0.74550  Biso   1.000  C
  C86      1.0000 0.59120  0.15050  0.74850  Biso   1.000  C
  H59      1.0000 0.61050  0.13980  0.73190  Biso   1.000  H
  C87      1.0000 0.56980  0.93430  0.66200  Biso   1.000  C
  C88      1.0000 0.59400  0.22310  0.77720  Biso   1.000  C
  H60      1.0000 0.61670  0.25970  0.78050  Biso   1.000  H
  N28      1.0000 0.54110  0.87600  0.66230  Biso   1.000  N
  C89      1.0000 0.52030  0.89240  0.69220  Biso   1.000  C
  N29      1.0000 0.52600  0.95840  0.72120  Biso   1.000  N
  C90      1.0000 0.55430  0.01570  0.71650  Biso   1.000  C
  N30      1.0000 0.57760  0.00610  0.68820  Biso   1.000  N
  N31      1.0000 0.83240  0.20390  0.64510  Biso   1.000  N
  C91      1.0000 0.81200  0.16070  0.60860  Biso   1.000  C
  H61      1.0000 0.81880  0.10060  0.60330  Biso   1.000  H
  C92      1.0000 0.78260  0.20160  0.58010  Biso   1.000  C
  H62      1.0000 0.76790  0.16930  0.55610  Biso   1.000  H
  C93      1.0000 0.77420  0.28950  0.58610  Biso   1.000  C
  C94      1.0000 0.79510  0.33440  0.62190  Biso   1.000  C
  H63      1.0000 0.78960  0.39540  0.62670  Biso   1.000  H
  C95      1.0000 0.82440  0.28900  0.65080  Biso   1.000  C
  H64      1.0000 0.83900  0.32010  0.67530  Biso   1.000  H
  N32      1.0000 0.62100  0.18260  0.39260  Biso   1.000  N
  C96      1.0000 0.64930  0.14250  0.41960  Biso   1.000  C
  H65      1.0000 0.65340  0.08030  0.41580  Biso   1.000  H
  C97      1.0000 0.67420  0.18810  0.45430  Biso   1.000  C
  H66      1.0000 0.69540  0.15780  0.47270  Biso   1.000  H
  C98      1.0000 0.66720  0.27540  0.46060  Biso   1.000  C
  C99      1.0000 0.63710  0.31850  0.43250  Biso   1.000  C
  H67      1.0000 0.63370  0.38160  0.43400  Biso   1.000  H
  C100     1.0000 0.61190  0.26710  0.40190  Biso   1.000  C
  H68      1.0000 0.58760  0.29210  0.38720  Biso   1.000  H
  N33      1.0000 0.68570  0.73970  0.52790  Biso   1.000  N
  C101     1.0000 0.66170  0.68410  0.50420  Biso   1.000  C
  H69      1.0000 0.63920  0.70770  0.48480  Biso   1.000  H
  C102     1.0000 0.66680  0.59410  0.50560  Biso   1.000  C
  H70      1.0000 0.64790  0.55710  0.48750  Biso   1.000  H
  C103     1.0000 0.69820  0.55560  0.53220  Biso   1.000  C
  C104     1.0000 0.72520  0.61470  0.55810  Biso   1.000  C
  H71      1.0000 0.74850  0.59340  0.57680  Biso   1.000  H
  C105     1.0000 0.71560  0.70930  0.55460  Biso   1.000  C
  H72      1.0000 0.73220  0.75030  0.57310  Biso   1.000  H
  C106     1.0000 0.74220  0.33540  0.55480  Biso   1.000  C
  N34      1.0000 0.72170  0.28370  0.52220  Biso   1.000  N
  C107     1.0000 0.69170  0.32730  0.49660  Biso   1.000  C
  N35      1.0000 0.68220  0.41350  0.50000  Biso   1.000  N
  C108     1.0000 0.70660  0.45720  0.53220  Biso   1.000  C
  N36      1.0000 0.73590  0.42350  0.56130  Biso   1.000  N
  N37      1.0000 0.57020  0.21940  0.29940  Biso   1.000  N
  C109     1.0000 0.59730  0.23980  0.27630  Biso   1.000  C
  H73      1.0000 0.61980  0.20240  0.27900  Biso   1.000  H
  C110     1.0000 0.59360  0.31470  0.24840  Biso   1.000  C
  H74      1.0000 0.61330  0.32870  0.23280  Biso   1.000  H
  C111     1.0000 0.56000  0.36750  0.24470  Biso   1.000  C
  C112     1.0000 0.53090  0.34390  0.26840  Biso   1.000  C
  H75      1.0000 0.50760  0.37880  0.26530  Biso   1.000  H
  C113     1.0000 0.53620  0.27150  0.29550  Biso   1.000  C
  H76      1.0000 0.51700  0.25670  0.31160  Biso   1.000  H
  N38      1.0000 0.64090  0.56710  0.06990  Biso   1.000  N
  C114     1.0000 0.60510  0.59940  0.06330  Biso   1.000  C
  H77      1.0000 0.59560  0.63380  0.03790  Biso   1.000  H
  C115     1.0000 0.58070  0.58520  0.09190  Biso   1.000  C
  H78      1.0000 0.55460  0.60740  0.08520  Biso   1.000  H
  C116     1.0000 0.59390  0.54010  0.12910  Biso   1.000  C
  C117     1.0000 0.63170  0.51070  0.13740  Biso   1.000  C
  H79      1.0000 0.64250  0.48020  0.16380  Biso   1.000  H
  C118     1.0000 0.65480  0.52600  0.10660  Biso   1.000  C
  H80      1.0000 0.68130  0.50580  0.11260  Biso   1.000  H
  N39      1.0000 0.42310  0.74320  0.19260  Biso   1.000  N
  C119     1.0000 0.43830  0.69380  0.22520  Biso   1.000  C
  H81      1.0000 0.42740  0.69810  0.25030  Biso   1.000  H
  C120     1.0000 0.46870  0.63540  0.22660  Biso   1.000  C
  H82      1.0000 0.47710  0.59710  0.25090  Biso   1.000  H
  C121     1.0000 0.48650  0.63340  0.19300  Biso   1.000  C
  C122     1.0000 0.47040  0.68400  0.15720  Biso   1.000  C
  H83      1.0000 0.47990  0.67990  0.13120  Biso   1.000  H
  C123     1.0000 0.44000  0.74220  0.16010  Biso   1.000  C
  H84      1.0000 0.43110  0.78320  0.13700  Biso   1.000  H
  C124     1.0000 0.55440  0.44970  0.21670  Biso   1.000  C
  N40      1.0000 0.57710  0.45720  0.18940  Biso   1.000  N
  C125     1.0000 0.56900  0.52640  0.16160  Biso   1.000  C
  N41      1.0000 0.53980  0.58470  0.16080  Biso   1.000  N
  C126     1.0000 0.51990  0.57190  0.19170  Biso   1.000  C
  N42      1.0000 0.52620  0.50600  0.22090  Biso   1.000  N
  N43      1.0000 0.83260  0.25830  0.14290  Biso   1.000  N
  C127     1.0000 0.81200  0.30080  0.10800  Biso   1.000  C
  H85      1.0000 0.81800  0.36180  0.10350  Biso   1.000  H
  C128     1.0000 0.78250  0.25920  0.07810  Biso   1.000  C
  H86      1.0000 0.76830  0.29130  0.05370  Biso   1.000  H
  C129     1.0000 0.77370  0.16950  0.08430  Biso   1.000  C
  C130     1.0000 0.79580  0.12640  0.11960  Biso   1.000  C
  H87      1.0000 0.79200  0.06450  0.12440  Biso   1.000  H
  C131     1.0000 0.82400  0.17600  0.14810  Biso   1.000  C
  H88      1.0000 0.83800  0.14650  0.17350  Biso   1.000  H
  N44      1.0000 0.68570  0.72120  0.02860  Biso   1.000  N
  C132     1.0000 0.71590  0.75880  0.05560  Biso   1.000  C
  H89      1.0000 0.73460  0.72100  0.07350  Biso   1.000  H
  C133     1.0000 0.72130  0.84860  0.05860  Biso   1.000  C
  H90      1.0000 0.74200  0.87190  0.08050  Biso   1.000  H
  C134     1.0000 0.69830  0.90560  0.03200  Biso   1.000  C
  C135     1.0000 0.66640  0.86840  0.00250  Biso   1.000  C
  H91      1.0000 0.64870  0.90620  0.98330  Biso   1.000  H
  N45      1.0000 0.62080  0.28040  0.89170  Biso   1.000  N
  C136     1.0000 0.66080  0.77750  0.00130  Biso   1.000  C
  H92      1.0000 0.63920  0.75290  0.98100  Biso   1.000  H
  C137     1.0000 0.65270  0.31860  0.91640  Biso   1.000  C
  H93      1.0000 0.65980  0.37720  0.90920  Biso   1.000  H
  C138     1.0000 0.67510  0.27690  0.95110  Biso   1.000  C
  H94      1.0000 0.69640  0.30780  0.96910  Biso   1.000  H
  C139     1.0000 0.66670  0.18760  0.96040  Biso   1.000  C
  C140     1.0000 0.63530  0.14880  0.93250  Biso   1.000  C
  H95      1.0000 0.62760  0.08910  0.93730  Biso   1.000  H
  C141     1.0000 0.74110  0.12460  0.05370  Biso   1.000  C
  C142     1.0000 0.61510  0.19630  0.89780  Biso   1.000  C
  H96      1.0000 0.59580  0.16580  0.87700  Biso   1.000  H
  N46      1.0000 0.73470  0.03910  0.05900  Biso   1.000  N
  C143     1.0000 0.70460  0.00320  0.03030  Biso   1.000  C
  N47      1.0000 0.68080  0.05090  0.00040  Biso   1.000  N
  C144     1.0000 0.69060  0.13490  0.99690  Biso   1.000  C
  N48      1.0000 0.72100  0.17610  0.02240  Biso   1.000  N
  Zn17     1.0000 0.68730  0.87620  0.53640  Biso   1.000  Zn
  I37      1.0000 0.75030  0.95210  0.56680  Biso   1.000  I
  I38      1.0000 0.64430  0.91870  0.45880  Biso   1.000  I
  I39      1.0000 0.35050  0.66320  0.76550  Biso   1.000  I
  I40      1.0000 0.38530  0.49560  0.66110  Biso   1.000  I
  Zn18     1.0000 0.58510  0.11550  0.34100  Biso   1.000  Zn
  I41      1.0000 0.62490  0.00230  0.30720  Biso   1.000  I
  I42      1.0000 0.52640  0.08330  0.37090  Biso   1.000  I
  Zn19     1.0000 0.67800  0.58280  0.02800  Biso   1.000  Zn
  I43      1.0000 0.63770  0.54940  0.95230  Biso   1.000  I
  I44      1.0000 0.74350  0.50550  0.05760  Biso   1.000  I
  I45      1.0000 0.87991  0.47242  0.16537  Biso   1.000  I
  I46      1.0000 0.85370  0.30200  0.26210  Biso   1.000  I
  Zn20     1.0000 0.59200  0.35230  0.83730  Biso   1.000  Zn
  I47      1.0000 0.63270  0.45900  0.80332  Biso   1.000  I
  I48      1.0000 0.53230  0.39020  0.86750  Biso   1.000  I
  Zn21     1.0000 0.82840  0.37650  0.47795  Biso   1.000  Zn
  I49      1.0000 0.76641  0.46690  0.45412  Biso   1.000  I
  I50      1.0000 0.87404  0.39640  0.55206  Biso   1.000  I
  I51      1.0000 0.14240  0.14430  0.24190  Biso   1.000  I
  I52      1.0000 0.10630  0.98980  0.34840  Biso   1.000  I
  Zn22     1.0000 0.92080  0.61700  0.65390  Biso   1.000  Zn
  I53      1.0000 0.88680  0.49210  0.68350  Biso   1.000  I
  I54      1.0000 0.98230  0.59920  0.62128  Biso   1.000  I
  Zn23     1.0000 0.83050  0.08780  0.98150  Biso   1.000  Zn
  I55      1.0000 0.87750  0.06750  0.05359  Biso   1.000  I
  I56      1.0000 0.76960  0.99290  0.95698  Biso   1.000  I
  I57      1.0000 0.64870  0.81420  0.74050  Biso   1.000  I
  I58      1.0000 0.60714  0.97370  0.85186  Biso   1.000  I
  Zn24     1.0000 0.92318  0.84700  0.15302  Biso   1.000  Zn
  I59      1.0000 0.88961  0.96853  0.18699  Biso   1.000  I
  I60      1.0000 0.98321  0.86460  0.12038  Biso   1.000  I
  Zn25     1.0000 0.12521  0.13859  0.30994  Biso   1.000  Zn
  Zn26     1.0000 0.62631  0.82400  0.81052  Biso   1.000  Zn
  N49      1.0000 0.85820  0.39150  0.42880  Biso   1.000  N
  C145     1.0000 0.89130  0.35300  0.43280  Biso   1.000  C
  H97      1.0000 0.89900  0.31230  0.45640  Biso   1.000  H
  C146     1.0000 0.91780  0.36600  0.40430  Biso   1.000  C
  H98      1.0000 0.94310  0.33930  0.40990  Biso   1.000  H
  C147     1.0000 0.90490  0.41930  0.36870  Biso   1.000  C
  C148     1.0000 0.86760  0.46070  0.36250  Biso   1.000  C
  H99      1.0000 0.85780  0.49820  0.33830  Biso   1.000  H
  C149     1.0000 0.84680  0.44370  0.39320  Biso   1.000  C
  H100     1.0000 0.82170  0.47120  0.38950  Biso   1.000  H
  N50      1.0000 0.07760  0.22010  0.30740  Biso   1.000  N
  C150     1.0000 0.06010  0.22600  0.34040  Biso   1.000  C
  H101     1.0000 0.06990  0.18910  0.36480  Biso   1.000  H
  C151     1.0000 0.02940  0.28000  0.34260  Biso   1.000  C
  H102     1.0000 0.01940  0.28300  0.36830  Biso   1.000  H
  C152     1.0000 0.01290  0.33100  0.30690  Biso   1.000  C
  C153     1.0000 0.03190  0.32900  0.27240  Biso   1.000  C
  H103     1.0000 0.02260  0.36630  0.24790  Biso   1.000  H
  C154     1.0000 0.06450  0.27330  0.27270  Biso   1.000  C
  H104     1.0000 0.07710  0.27320  0.24890  Biso   1.000  H
  N51      1.0000 0.93090  0.74420  0.20080  Biso   1.000  N
  C155     1.0000 0.96090  0.69310  0.20560  Biso   1.000  C
  H105     1.0000 0.98040  0.70830  0.18990  Biso   1.000  H
  C156     1.0000 0.96770  0.61740  0.23170  Biso   1.000  C
  H106     1.0000 0.99070  0.58200  0.23320  Biso   1.000  H
  C157     1.0000 0.94100  0.59580  0.25450  Biso   1.000  C
  C158     1.0000 0.90880  0.65050  0.25150  Biso   1.000  C
  H107     1.0000 0.88950  0.63980  0.26810  Biso   1.000  H
  C159     1.0000 0.93020  0.43430  0.33800  Biso   1.000  C
  C160     1.0000 0.90600  0.72310  0.22280  Biso   1.000  C
  H108     1.0000 0.88330  0.75970  0.21950  Biso   1.000  H
  N52      1.0000 0.95890  0.37600  0.33770  Biso   1.000  N
  C161     1.0000 0.97970  0.39240  0.30780  Biso   1.000  C
  N53      1.0000 0.97400  0.45840  0.27880  Biso   1.000  N
  C162     1.0000 0.94570  0.51570  0.28350  Biso   1.000  C
  N54      1.0000 0.92240  0.50610  0.31180  Biso   1.000  N
  N55      1.0000 0.66760  0.70390  0.35490  Biso   1.000  N
  C163     1.0000 0.68800  0.66070  0.39140  Biso   1.000  C
  H109     1.0000 0.68120  0.60060  0.39670  Biso   1.000  H
  C164     1.0000 0.71740  0.70160  0.41990  Biso   1.000  C
  H110     1.0000 0.73210  0.66930  0.44390  Biso   1.000  H
  C165     1.0000 0.72580  0.78950  0.41390  Biso   1.000  C
  C166     1.0000 0.70490  0.83440  0.37810  Biso   1.000  C
  H111     1.0000 0.71040  0.89540  0.37330  Biso   1.000  H
  C167     1.0000 0.67560  0.78900  0.34920  Biso   1.000  C
  H112     1.0000 0.66100  0.82010  0.32470  Biso   1.000  H
  N56      1.0000 0.87900  0.68260  0.60740  Biso   1.000  N
  C168     1.0000 0.85070  0.64250  0.58040  Biso   1.000  C
  H113     1.0000 0.84660  0.58030  0.58420  Biso   1.000  H
  C169     1.0000 0.82580  0.68810  0.54570  Biso   1.000  C
  H114     1.0000 0.80460  0.65780  0.52730  Biso   1.000  H
  C170     1.0000 0.83280  0.77540  0.53940  Biso   1.000  C
  C171     1.0000 0.86290  0.81850  0.56750  Biso   1.000  C
  H115     1.0000 0.86630  0.88160  0.56600  Biso   1.000  H
  C172     1.0000 0.88810  0.76710  0.59810  Biso   1.000  C
  H116     1.0000 0.91240  0.79210  0.61280  Biso   1.000  H
  N57      1.0000 0.81430  0.23970  0.47210  Biso   1.000  N
  C173     1.0000 0.83830  0.18410  0.49580  Biso   1.000  C
  H117     1.0000 0.86080  0.20770  0.51520  Biso   1.000  H
  C174     1.0000 0.83320  0.09410  0.49440  Biso   1.000  C
  H118     1.0000 0.85210  0.05710  0.51250  Biso   1.000  H
  C175     1.0000 0.80180  0.05560  0.46780  Biso   1.000  C
  C176     1.0000 0.77480  0.11470  0.44190  Biso   1.000  C
  H119     1.0000 0.75150  0.09340  0.42320  Biso   1.000  H
  C177     1.0000 0.78440  0.20930  0.44540  Biso   1.000  C
  H120     1.0000 0.76780  0.25030  0.42690  Biso   1.000  H
  C178     1.0000 0.75780  0.83540  0.44520  Biso   1.000  C
  N58      1.0000 0.77830  0.78370  0.47780  Biso   1.000  N
  C179     1.0000 0.80830  0.82730  0.50340  Biso   1.000  C
  N59      1.0000 0.81780  0.91350  0.50000  Biso   1.000  N
  C180     1.0000 0.79340  0.95720  0.46780  Biso   1.000  C
  N60      1.0000 0.76410  0.92350  0.43870  Biso   1.000  N
  N61      1.0000 0.92980  0.71940  0.70060  Biso   1.000  N
  C181     1.0000 0.90270  0.73980  0.72370  Biso   1.000  C
  H121     1.0000 0.88020  0.70240  0.72100  Biso   1.000  H
  C182     1.0000 0.90640  0.81470  0.75160  Biso   1.000  C
  H122     1.0000 0.88670  0.82870  0.76720  Biso   1.000  H
  C183     1.0000 0.94000  0.86750  0.75530  Biso   1.000  C
  C184     1.0000 0.96910  0.84390  0.73160  Biso   1.000  C
  H123     1.0000 0.99240  0.87880  0.73470  Biso   1.000  H
  C185     1.0000 0.96380  0.77150  0.70450  Biso   1.000  C
  H124     1.0000 0.98300  0.75670  0.68840  Biso   1.000  H
  N62      1.0000 0.85910  0.06710  0.93010  Biso   1.000  N
  C186     1.0000 0.89490  0.09940  0.93670  Biso   1.000  C
  H125     1.0000 0.90440  0.13380  0.96210  Biso   1.000  H
  C187     1.0000 0.91930  0.08520  0.90810  Biso   1.000  C
  H126     1.0000 0.94540  0.10740  0.91480  Biso   1.000  H
  C188     1.0000 0.90610  0.04010  0.87090  Biso   1.000  C
  C189     1.0000 0.86830  0.01070  0.86260  Biso   1.000  C
  H127     1.0000 0.85750  0.98020  0.83620  Biso   1.000  H
  C190     1.0000 0.84520  0.02600  0.89340  Biso   1.000  C
  H128     1.0000 0.81870  0.00580  0.88740  Biso   1.000  H
  N63      1.0000 0.07690  0.24320  0.80740  Biso   1.000  N
  C191     1.0000 0.06170  0.19380  0.77480  Biso   1.000  C
  H129     1.0000 0.07260  0.19810  0.74970  Biso   1.000  H
  C192     1.0000 0.03130  0.13540  0.77340  Biso   1.000  C
  H130     1.0000 0.02290  0.09710  0.74910  Biso   1.000  H
  C193     1.0000 0.01350  0.13340  0.80700  Biso   1.000  C
  C194     1.0000 0.02960  0.18400  0.84280  Biso   1.000  C
  H131     1.0000 0.02010  0.17990  0.86880  Biso   1.000  H
  C195     1.0000 0.06000  0.24220  0.83990  Biso   1.000  C
  H132     1.0000 0.06890  0.28320  0.86300  Biso   1.000  H
  C196     1.0000 0.94560  0.94970  0.78330  Biso   1.000  C
  N64      1.0000 0.92290  0.95720  0.81060  Biso   1.000  N
  C197     1.0000 0.93100  0.02640  0.83840  Biso   1.000  C
  N65      1.0000 0.96020  0.08470  0.83920  Biso   1.000  N
  C198     1.0000 0.98010  0.07190  0.80830  Biso   1.000  C
  N66      1.0000 0.97380  0.00600  0.77910  Biso   1.000  N
  N67      1.0000 0.66740  0.75830  0.85710  Biso   1.000  N
  C199     1.0000 0.68800  0.80080  0.89200  Biso   1.000  C
  H133     1.0000 0.68200  0.86180  0.89650  Biso   1.000  H
  C200     1.0000 0.71750  0.75920  0.92190  Biso   1.000  C
  H134     1.0000 0.73170  0.79130  0.94630  Biso   1.000  H
  C201     1.0000 0.72630  0.66950  0.91570  Biso   1.000  C
  C202     1.0000 0.70420  0.62640  0.88040  Biso   1.000  C
  H135     1.0000 0.70800  0.56450  0.87560  Biso   1.000  H
  C203     1.0000 0.67600  0.67600  0.85190  Biso   1.000  C
  H136     1.0000 0.66200  0.64650  0.82650  Biso   1.000  H
  N68      1.0000 0.81430  0.22120  0.97140  Biso   1.000  N
  C204     1.0000 0.78410  0.25880  0.94440  Biso   1.000  C
  H137     1.0000 0.76540  0.22100  0.92650  Biso   1.000  H
  C205     1.0000 0.77870  0.34860  0.94140  Biso   1.000  C
  H138     1.0000 0.75800  0.37190  0.91950  Biso   1.000  H
  C206     1.0000 0.80170  0.40560  0.96800  Biso   1.000  C
  C207     1.0000 0.83360  0.36840  0.99750  Biso   1.000  C
  H139     1.0000 0.85130  0.40620  0.01670  Biso   1.000  H
  N69      1.0000 0.87920  0.78040  0.10830  Biso   1.000  N
  C208     1.0000 0.83920  0.27750  0.99870  Biso   1.000  C
  H140     1.0000 0.86080  0.25290  0.01900  Biso   1.000  H
  C209     1.0000 0.84730  0.81860  0.08360  Biso   1.000  C
  H141     1.0000 0.84020  0.87720  0.09080  Biso   1.000  H
  C210     1.0000 0.82490  0.77690  0.04890  Biso   1.000  C
  H142     1.0000 0.80360  0.80780  0.03090  Biso   1.000  H
  C211     1.0000 0.83330  0.68760  0.03960  Biso   1.000  C
  C212     1.0000 0.86470  0.64880  0.06750  Biso   1.000  C
  H143     1.0000 0.87240  0.58910  0.06270  Biso   1.000  H
  C213     1.0000 0.75890  0.62460  0.94630  Biso   1.000  C
  C214     1.0000 0.88490  0.69630  0.10220  Biso   1.000  C
  H144     1.0000 0.90420  0.66580  0.12300  Biso   1.000  H
  N70      1.0000 0.76530  0.53910  0.94100  Biso   1.000  N
  C215     1.0000 0.79540  0.50320  0.96970  Biso   1.000  C
  N71      1.0000 0.81920  0.55090  0.99960  Biso   1.000  N
  C216     1.0000 0.80940  0.63490  0.00310  Biso   1.000  C
  N72      1.0000 0.77900  0.67610  0.97760  Biso   1.000  N
  Zn27     1.0000 0.81270  0.37620  0.46360  Biso   1.000  Zn
  I61      1.0000 0.74970  0.45210  0.43320  Biso   1.000  I
  I62      1.0000 0.85570  0.41870  0.54120  Biso   1.000  I
  I63      1.0000 0.14950  0.16320  0.23450  Biso   1.000  I
  I64      1.0000 0.11470  0.99560  0.33890  Biso   1.000  I
  Zn28     1.0000 0.91490  0.61550  0.65900  Biso   1.000  Zn
  I65      1.0000 0.87510  0.50230  0.69280  Biso   1.000  I
  I66      1.0000 0.97360  0.58330  0.62910  Biso   1.000  I
  Zn29     1.0000 0.82200  0.08280  0.97200  Biso   1.000  Zn
  I67      1.0000 0.86230  0.04940  0.04770  Biso   1.000  I
  I68      1.0000 0.75650  0.00550  0.94240  Biso   1.000  I
  I69      1.0000 0.62009  0.97242  0.83463  Biso   1.000  I
  I70      1.0000 0.64630  0.80200  0.73790  Biso   1.000  I
  Zn30     1.0000 0.90800  0.85230  0.16270  Biso   1.000  Zn
  I71      1.0000 0.86730  0.95900  0.19668  Biso   1.000  I
  I72      1.0000 0.96770  0.89020  0.13250  Biso   1.000  I
  Zn31     1.0000 0.32840  0.87650  0.47795  Biso   1.000  Zn
  I73      1.0000 0.26641  0.96690  0.45412  Biso   1.000  I
  I74      1.0000 0.37404  0.89640  0.55206  Biso   1.000  I
  I75      1.0000 0.64240  0.64430  0.24190  Biso   1.000  I
  I76      1.0000 0.60630  0.48980  0.34840  Biso   1.000  I
  Zn32     1.0000 0.42080  0.11700  0.65390  Biso   1.000  Zn
  I77      1.0000 0.38680  0.99210  0.68350  Biso   1.000  I
  I78      1.0000 0.48230  0.09920  0.62128  Biso   1.000  I
  Zn33     1.0000 0.33050  0.58780  0.98150  Biso   1.000  Zn
  I79      1.0000 0.37750  0.56750  0.05359  Biso   1.000  I
  I80      1.0000 0.26960  0.49290  0.95698  Biso   1.000  I
  I81      1.0000 0.14870  0.31420  0.74050  Biso   1.000  I
  I82      1.0000 0.10714  0.47370  0.85186  Biso   1.000  I
  Zn34     1.0000 0.42318  0.34700  0.15302  Biso   1.000  Zn
  I83      1.0000 0.38961  0.46853  0.18699  Biso   1.000  I
  I84      1.0000 0.48321  0.36460  0.12038  Biso   1.000  I
  Zn35     1.0000 0.62521  0.63859  0.30994  Biso   1.000  Zn
  Zn36     1.0000 0.12631  0.32400  0.81052  Biso   1.000  Zn
  N73      1.0000 0.35820  0.89150  0.42880  Biso   1.000  N
  C217     1.0000 0.39130  0.85300  0.43280  Biso   1.000  C
  H145     1.0000 0.39900  0.81230  0.45640  Biso   1.000  H
  C218     1.0000 0.41780  0.86600  0.40430  Biso   1.000  C
  H146     1.0000 0.44310  0.83930  0.40990  Biso   1.000  H
  C219     1.0000 0.40490  0.91930  0.36870  Biso   1.000  C
  C220     1.0000 0.36760  0.96070  0.36250  Biso   1.000  C
  H147     1.0000 0.35780  0.99820  0.33830  Biso   1.000  H
  C221     1.0000 0.34680  0.94370  0.39320  Biso   1.000  C
  H148     1.0000 0.32170  0.97120  0.38950  Biso   1.000  H
  N74      1.0000 0.57760  0.72010  0.30740  Biso   1.000  N
  C222     1.0000 0.56010  0.72600  0.34040  Biso   1.000  C
  H149     1.0000 0.56990  0.68910  0.36480  Biso   1.000  H
  C223     1.0000 0.52940  0.78000  0.34260  Biso   1.000  C
  H150     1.0000 0.51940  0.78300  0.36830  Biso   1.000  H
  C224     1.0000 0.51290  0.83100  0.30690  Biso   1.000  C
  C225     1.0000 0.53190  0.82900  0.27240  Biso   1.000  C
  H151     1.0000 0.52260  0.86630  0.24790  Biso   1.000  H
  C226     1.0000 0.56450  0.77330  0.27270  Biso   1.000  C
  H152     1.0000 0.57710  0.77320  0.24890  Biso   1.000  H
  N75      1.0000 0.43090  0.24420  0.20080  Biso   1.000  N
  C227     1.0000 0.46090  0.19310  0.20560  Biso   1.000  C
  H153     1.0000 0.48040  0.20830  0.18990  Biso   1.000  H
  C228     1.0000 0.46770  0.11740  0.23170  Biso   1.000  C
  H154     1.0000 0.49070  0.08200  0.23320  Biso   1.000  H
  C229     1.0000 0.44100  0.09580  0.25450  Biso   1.000  C
  C230     1.0000 0.40880  0.15050  0.25150  Biso   1.000  C
  H155     1.0000 0.38950  0.13980  0.26810  Biso   1.000  H
  C231     1.0000 0.43020  0.93430  0.33800  Biso   1.000  C
  C232     1.0000 0.40600  0.22310  0.22280  Biso   1.000  C
  H156     1.0000 0.38330  0.25970  0.21950  Biso   1.000  H
  N76      1.0000 0.45890  0.87600  0.33770  Biso   1.000  N
  C233     1.0000 0.47970  0.89240  0.30780  Biso   1.000  C
  N77      1.0000 0.47400  0.95840  0.27880  Biso   1.000  N
  C234     1.0000 0.44570  0.01570  0.28350  Biso   1.000  C
  N78      1.0000 0.42240  0.00610  0.31180  Biso   1.000  N
  N79      1.0000 0.16760  0.20390  0.35490  Biso   1.000  N
  C235     1.0000 0.18800  0.16070  0.39140  Biso   1.000  C
  H157     1.0000 0.18120  0.10060  0.39670  Biso   1.000  H
  C236     1.0000 0.21740  0.20160  0.41990  Biso   1.000  C
  H158     1.0000 0.23210  0.16930  0.44390  Biso   1.000  H
  C237     1.0000 0.22580  0.28950  0.41390  Biso   1.000  C
  C238     1.0000 0.20490  0.33440  0.37810  Biso   1.000  C
  H159     1.0000 0.21040  0.39540  0.37330  Biso   1.000  H
  C239     1.0000 0.17560  0.28900  0.34920  Biso   1.000  C
  H160     1.0000 0.16100  0.32010  0.32470  Biso   1.000  H
  N80      1.0000 0.37900  0.18260  0.60740  Biso   1.000  N
  C240     1.0000 0.35070  0.14250  0.58040  Biso   1.000  C
  H161     1.0000 0.34660  0.08030  0.58420  Biso   1.000  H
  C241     1.0000 0.32580  0.18810  0.54570  Biso   1.000  C
  H162     1.0000 0.30460  0.15780  0.52730  Biso   1.000  H
  C242     1.0000 0.33280  0.27540  0.53940  Biso   1.000  C
  C243     1.0000 0.36290  0.31850  0.56750  Biso   1.000  C
  H163     1.0000 0.36630  0.38160  0.56600  Biso   1.000  H
  C244     1.0000 0.38810  0.26710  0.59810  Biso   1.000  C
  H164     1.0000 0.41240  0.29210  0.61280  Biso   1.000  H
  N81      1.0000 0.31430  0.73970  0.47210  Biso   1.000  N
  C245     1.0000 0.33830  0.68410  0.49580  Biso   1.000  C
  H165     1.0000 0.36080  0.70770  0.51520  Biso   1.000  H
  C246     1.0000 0.33320  0.59410  0.49440  Biso   1.000  C
  H166     1.0000 0.35210  0.55710  0.51250  Biso   1.000  H
  C247     1.0000 0.30180  0.55560  0.46780  Biso   1.000  C
  C248     1.0000 0.27480  0.61470  0.44190  Biso   1.000  C
  H167     1.0000 0.25150  0.59340  0.42320  Biso   1.000  H
  C249     1.0000 0.28440  0.70930  0.44540  Biso   1.000  C
  H168     1.0000 0.26780  0.75030  0.42690  Biso   1.000  H
  C250     1.0000 0.25780  0.33540  0.44520  Biso   1.000  C
  N82      1.0000 0.27830  0.28370  0.47780  Biso   1.000  N
  C251     1.0000 0.30830  0.32730  0.50340  Biso   1.000  C
  N83      1.0000 0.31780  0.41350  0.50000  Biso   1.000  N
  C252     1.0000 0.29340  0.45720  0.46780  Biso   1.000  C
  N84      1.0000 0.26410  0.42350  0.43870  Biso   1.000  N
  N85      1.0000 0.42980  0.21940  0.70060  Biso   1.000  N
  C253     1.0000 0.40270  0.23980  0.72370  Biso   1.000  C
  H169     1.0000 0.38020  0.20240  0.72100  Biso   1.000  H
  C254     1.0000 0.40640  0.31470  0.75160  Biso   1.000  C
  H170     1.0000 0.38670  0.32870  0.76720  Biso   1.000  H
  C255     1.0000 0.44000  0.36750  0.75530  Biso   1.000  C
  C256     1.0000 0.46910  0.34390  0.73160  Biso   1.000  C
  H171     1.0000 0.49240  0.37880  0.73470  Biso   1.000  H
  C257     1.0000 0.46380  0.27150  0.70450  Biso   1.000  C
  H172     1.0000 0.48300  0.25670  0.68840  Biso   1.000  H
  N86      1.0000 0.35910  0.56710  0.93010  Biso   1.000  N
  C258     1.0000 0.39490  0.59940  0.93670  Biso   1.000  C
  H173     1.0000 0.40440  0.63380  0.96210  Biso   1.000  H
  C259     1.0000 0.41930  0.58520  0.90810  Biso   1.000  C
  H174     1.0000 0.44540  0.60740  0.91480  Biso   1.000  H
  C260     1.0000 0.40610  0.54010  0.87090  Biso   1.000  C
  C261     1.0000 0.36830  0.51070  0.86260  Biso   1.000  C
  H175     1.0000 0.35750  0.48020  0.83620  Biso   1.000  H
  C262     1.0000 0.34520  0.52600  0.89340  Biso   1.000  C
  H176     1.0000 0.31870  0.50580  0.88740  Biso   1.000  H
  N87      1.0000 0.57690  0.74320  0.80740  Biso   1.000  N
  C263     1.0000 0.56170  0.69380  0.77480  Biso   1.000  C
  H177     1.0000 0.57260  0.69810  0.74970  Biso   1.000  H
  C264     1.0000 0.53130  0.63540  0.77340  Biso   1.000  C
  H178     1.0000 0.52290  0.59710  0.74910  Biso   1.000  H
  C265     1.0000 0.51350  0.63340  0.80700  Biso   1.000  C
  C266     1.0000 0.52960  0.68400  0.84280  Biso   1.000  C
  H179     1.0000 0.52010  0.67990  0.86880  Biso   1.000  H
  C267     1.0000 0.56000  0.74220  0.83990  Biso   1.000  C
  H180     1.0000 0.56890  0.78320  0.86300  Biso   1.000  H
  C268     1.0000 0.44560  0.44970  0.78330  Biso   1.000  C
  N88      1.0000 0.42290  0.45720  0.81060  Biso   1.000  N
  C269     1.0000 0.43100  0.52640  0.83840  Biso   1.000  C
  N89      1.0000 0.46020  0.58470  0.83920  Biso   1.000  N
  C270     1.0000 0.48010  0.57190  0.80830  Biso   1.000  C
  N90      1.0000 0.47380  0.50600  0.77910  Biso   1.000  N
  N91      1.0000 0.16740  0.25830  0.85710  Biso   1.000  N
  C271     1.0000 0.18800  0.30080  0.89200  Biso   1.000  C
  H181     1.0000 0.18200  0.36180  0.89650  Biso   1.000  H
  C272     1.0000 0.21750  0.25920  0.92190  Biso   1.000  C
  H182     1.0000 0.23170  0.29130  0.94630  Biso   1.000  H
  C273     1.0000 0.22630  0.16950  0.91570  Biso   1.000  C
  C274     1.0000 0.20420  0.12640  0.88040  Biso   1.000  C
  H183     1.0000 0.20800  0.06450  0.87560  Biso   1.000  H
  C275     1.0000 0.17600  0.17600  0.85190  Biso   1.000  C
  H184     1.0000 0.16200  0.14650  0.82650  Biso   1.000  H
  N92      1.0000 0.31430  0.72120  0.97140  Biso   1.000  N
  C276     1.0000 0.28410  0.75880  0.94440  Biso   1.000  C
  H185     1.0000 0.26540  0.72100  0.92650  Biso   1.000  H
  C277     1.0000 0.27870  0.84860  0.94140  Biso   1.000  C
  H186     1.0000 0.25800  0.87190  0.91950  Biso   1.000  H
  C278     1.0000 0.30170  0.90560  0.96800  Biso   1.000  C
  C279     1.0000 0.33360  0.86840  0.99750  Biso   1.000  C
  H187     1.0000 0.35130  0.90620  0.01670  Biso   1.000  H
  N93      1.0000 0.37920  0.28040  0.10830  Biso   1.000  N
  C280     1.0000 0.33920  0.77750  0.99870  Biso   1.000  C
  H188     1.0000 0.36080  0.75290  0.01900  Biso   1.000  H
  C281     1.0000 0.34730  0.31860  0.08360  Biso   1.000  C
  H189     1.0000 0.34020  0.37720  0.09080  Biso   1.000  H
  C282     1.0000 0.32490  0.27690  0.04890  Biso   1.000  C
  H190     1.0000 0.30360  0.30780  0.03090  Biso   1.000  H
  C283     1.0000 0.33330  0.18760  0.03960  Biso   1.000  C
  C284     1.0000 0.36470  0.14880  0.06750  Biso   1.000  C
  H191     1.0000 0.37240  0.08910  0.06270  Biso   1.000  H
  C285     1.0000 0.25890  0.12460  0.94630  Biso   1.000  C
  C286     1.0000 0.38490  0.19630  0.10220  Biso   1.000  C
  H192     1.0000 0.40420  0.16580  0.12300  Biso   1.000  H
  N94      1.0000 0.26530  0.03910  0.94100  Biso   1.000  N
  C287     1.0000 0.29540  0.00320  0.96970  Biso   1.000  C
  N95      1.0000 0.31920  0.05090  0.99960  Biso   1.000  N
  C288     1.0000 0.30940  0.13490  0.00310  Biso   1.000  C
  N96      1.0000 0.27900  0.17610  0.97760  Biso   1.000  N
  Zn37     1.0000 0.31270  0.87620  0.46360  Biso   1.000  Zn
  I85      1.0000 0.24970  0.95210  0.43320  Biso   1.000  I
  I86      1.0000 0.35570  0.91870  0.54120  Biso   1.000  I
  I87      1.0000 0.64950  0.66320  0.23450  Biso   1.000  I
  I88      1.0000 0.61470  0.49560  0.33890  Biso   1.000  I
  Zn38     1.0000 0.41490  0.11550  0.65900  Biso   1.000  Zn
  I89      1.0000 0.37510  0.00230  0.69280  Biso   1.000  I
  I90      1.0000 0.47360  0.08330  0.62910  Biso   1.000  I
  Zn39     1.0000 0.32200  0.58280  0.97200  Biso   1.000  Zn
  I91      1.0000 0.36230  0.54940  0.04770  Biso   1.000  I
  I92      1.0000 0.25650  0.50550  0.94240  Biso   1.000  I
  I93      1.0000 0.12009  0.47242  0.83463  Biso   1.000  I
  I94      1.0000 0.14630  0.30200  0.73790  Biso   1.000  I
  Zn40     1.0000 0.40800  0.35230  0.16270  Biso   1.000  Zn
  I95      1.0000 0.36730  0.45900  0.19668  Biso   1.000  I
  I96      1.0000 0.46770  0.39020  0.13250  Biso   1.000  I
