data_image0
_cell_length_a       35.1081
_cell_length_b       14.6516
_cell_length_c       31.3279
_cell_angle_alpha    90
_cell_angle_beta     101.649
_cell_angle_gamma    90

_symmetry_space_group_name_H-M    "P 1"
_symmetry_int_tables_number       1

loop_
  _symmetry_equiv_pos_as_xyz
  'x, y, z'

loop_
  _atom_site_label
  _atom_site_occupancy
  _atom_site_fract_x
  _atom_site_fract_y
  _atom_site_fract_z
  _atom_site_thermal_displace_type
  _atom_site_B_iso_or_equiv
  _atom_site_type_symbol
  Zn1      1.0000 0.33034  0.86240  0.48105  Biso   1.000  Zn
  I1       1.0000 0.26940  0.76837  0.45798  Biso   1.000  I
  I2       1.0000 0.37603  0.85070  0.55404  Biso   1.000  I
  Zn2      1.0000 0.62220  0.10910  0.32220  Biso   1.000  Zn
  I3       1.0000 0.64634  0.12070  0.24930  Biso   1.000  I
  I4       1.0000 0.59660  0.23690  0.35830  Biso   1.000  I
  Zn3      1.0000 0.91990  0.13240  0.65750  Biso   1.000  Zn
  I5       1.0000 0.97556  0.15340  0.61970  Biso   1.000  I
  I6       1.0000 0.88321  0.24630  0.69303  Biso   1.000  I
  Zn4      1.0000 0.83210  0.63830  0.97820  Biso   1.000  Zn
  I7       1.0000 0.77129  0.73500  0.95695  Biso   1.000  I
  I8       1.0000 0.88119  0.66130  0.04887  Biso   1.000  I
  Zn5      1.0000 0.91816  0.87130  0.15807  Biso   1.000  Zn
  I9       1.0000 0.97850  0.83680  0.12180  Biso   1.000  I
  I10      1.0000 0.88750  0.75660  0.20050  Biso   1.000  I
  Zn6      1.0000 0.62590  0.88490  0.81640  Biso   1.000  Zn
  I11      1.0000 0.64780  0.89930  0.74730  Biso   1.000  I
  I12      1.0000 0.60630  0.75390  0.85440  Biso   1.000  I
  N1       1.0000 0.36170  0.84180  0.43210  Biso   1.000  N
  C1       1.0000 0.34920  0.79380  0.39340  Biso   1.000  C
  H1       1.0000 0.32330  0.77100  0.38760  Biso   1.000  H
  C2       1.0000 0.37080  0.77800  0.36420  Biso   1.000  C
  H2       1.0000 0.36120  0.73970  0.34000  Biso   1.000  H
  C3       1.0000 0.40730  0.81670  0.36890  Biso   1.000  C
  C4       1.0000 0.41830  0.86400  0.40470  Biso   1.000  C
  H3       1.0000 0.44450  0.88480  0.41170  Biso   1.000  H
  C5       1.0000 0.39570  0.88500  0.43070  Biso   1.000  C
  H4       1.0000 0.40320  0.93460  0.45040  Biso   1.000  H
  N2       1.0000 0.57790  0.01450  0.31100  Biso   1.000  N
  C6       1.0000 0.56320  0.97080  0.27620  Biso   1.000  C
  H5       1.0000 0.57360  0.98070  0.25090  Biso   1.000  H
  C7       1.0000 0.53270  0.90950  0.27400  Biso   1.000  C
  H6       1.0000 0.52480  0.87330  0.24860  Biso   1.000  H
  C8       1.0000 0.51410  0.90070  0.30730  Biso   1.000  C
  C9       1.0000 0.53360  0.94040  0.34670  Biso   1.000  C
  H7       1.0000 0.52580  0.92770  0.37340  Biso   1.000  H
  C10      1.0000 0.56460  0.99870  0.34530  Biso   1.000  C
  H8       1.0000 0.57660  0.02860  0.37150  Biso   1.000  H
  N3       1.0000 0.43090  0.48020  0.20060  Biso   1.000  N
  C11      1.0000 0.40440  0.50540  0.22480  Biso   1.000  C
  H9       1.0000 0.38190  0.46870  0.22360  Biso   1.000  H
  C12      1.0000 0.40900  0.58290  0.25100  Biso   1.000  C
  H10      1.0000 0.38950  0.59960  0.26670  Biso   1.000  H
  C13      1.0000 0.44160  0.63420  0.25380  Biso   1.000  C
  C14      1.0000 0.46840  0.61240  0.23010  Biso   1.000  C
  H11      1.0000 0.49080  0.64950  0.23100  Biso   1.000  H
  C15      1.0000 0.46270  0.53390  0.20430  Biso   1.000  C
  H12      1.0000 0.48200  0.51750  0.18840  Biso   1.000  H
  C16      1.0000 0.43090  0.79910  0.33630  Biso   1.000  C
  N4       1.0000 0.45890  0.85900  0.33670  Biso   1.000  N
  C17      1.0000 0.48090  0.84370  0.30600  Biso   1.000  C
  N5       1.0000 0.47570  0.77310  0.27770  Biso   1.000  N
  C18      1.0000 0.44620  0.71600  0.28240  Biso   1.000  C
  N6       1.0000 0.42400  0.72710  0.31000  Biso   1.000  N
  N7       1.0000 0.66550  0.04270  0.36090  Biso   1.000  N
  C19      1.0000 0.68560  0.08670  0.39570  Biso   1.000  C
  H13      1.0000 0.67950  0.14860  0.40060  Biso   1.000  H
  C20      1.0000 0.71470  0.04390  0.42460  Biso   1.000  C
  H14      1.0000 0.72780  0.07520  0.44990  Biso   1.000  H
  C21      1.0000 0.72520  0.95400  0.41690  Biso   1.000  C
  C22      1.0000 0.70450  0.91100  0.38120  Biso   1.000  C
  H15      1.0000 0.71050  0.84960  0.37550  Biso   1.000  H
  C23      1.0000 0.67500  0.95500  0.35340  Biso   1.000  C
  H16      1.0000 0.66110  0.92380  0.32850  Biso   1.000  H
  N8       1.0000 0.87650  0.06350  0.61070  Biso   1.000  N
  C24      1.0000 0.84820  0.10300  0.58240  Biso   1.000  C
  H17      1.0000 0.84370  0.16600  0.58660  Biso   1.000  H
  C25      1.0000 0.82480  0.06140  0.54770  Biso   1.000  C
  H18      1.0000 0.80580  0.09530  0.52810  Biso   1.000  H
  C26      1.0000 0.82930  0.97020  0.54180  Biso   1.000  C
  C27      1.0000 0.85830  0.92480  0.57140  Biso   1.000  C
  H19      1.0000 0.86180  0.86100  0.56850  Biso   1.000  H
  C28      1.0000 0.88190  0.97160  0.60470  Biso   1.000  C
  H20      1.0000 0.90220  0.94020  0.62370  Biso   1.000  H
  N9       1.0000 0.81730  0.50070  0.47180  Biso   1.000  N
  C29      1.0000 0.78520  0.53470  0.44580  Biso   1.000  C
  H21      1.0000 0.76760  0.49430  0.42810  Biso   1.000  H
  C30      1.0000 0.77740  0.62630  0.44440  Biso   1.000  C
  H22      1.0000 0.75380  0.64820  0.42700  Biso   1.000  H
  C31      1.0000 0.80320  0.68670  0.46780  Biso   1.000  C
  C32      1.0000 0.83660  0.65110  0.49260  Biso   1.000  C
  H23      1.0000 0.85460  0.69060  0.51030  Biso   1.000  H
  C33      1.0000 0.84440  0.55960  0.49220  Biso   1.000  C
  H24      1.0000 0.86910  0.53750  0.50650  Biso   1.000  H
  C34      1.0000 0.75760  0.90900  0.44570  Biso   1.000  C
  N10      1.0000 0.77740  0.96080  0.47900  Biso   1.000  N
  C35      1.0000 0.80790  0.91960  0.50510  Biso   1.000  C
  N11      1.0000 0.81750  0.83000  0.49950  Biso   1.000  N
  C36      1.0000 0.79570  0.78670  0.46830  Biso   1.000  C
  N12      1.0000 0.76510  0.82180  0.43980  Biso   1.000  N
  N13      1.0000 0.93190  0.02240  0.70230  Biso   1.000  N
  C37      1.0000 0.91130  0.00800  0.72820  Biso   1.000  C
  H25      1.0000 0.89250  0.05250  0.73130  Biso   1.000  H
  C38      1.0000 0.91350  0.92840  0.75430  Biso   1.000  C
  H26      1.0000 0.89490  0.91660  0.77180  Biso   1.000  H
  C39      1.0000 0.94320  0.86980  0.75340  Biso   1.000  C
  C40      1.0000 0.96830  0.89220  0.72680  Biso   1.000  C
  H27      1.0000 0.99040  0.85500  0.72640  Biso   1.000  H
  C41      1.0000 0.96150  0.96920  0.70050  Biso   1.000  C
  H28      1.0000 0.97830  0.98320  0.68110  Biso   1.000  H
  N14      1.0000 0.86130  0.65440  0.92610  Biso   1.000  N
  C42      1.0000 0.89060  0.61000  0.92810  Biso   1.000  C
  H29      1.0000 0.89790  0.56880  0.95170  Biso   1.000  H
  C43      1.0000 0.91530  0.61800  0.89590  Biso   1.000  C
  H30      1.0000 0.93610  0.57630  0.89570  Biso   1.000  H
  C44      1.0000 0.90710  0.68650  0.86630  Biso   1.000  C
  C45      1.0000 0.87390  0.73490  0.86590  Biso   1.000  C
  H31      1.0000 0.86570  0.78110  0.84470  Biso   1.000  H
  C46      1.0000 0.85230  0.71490  0.89720  Biso   1.000  C
  H32      1.0000 0.82920  0.74890  0.89680  Biso   1.000  H
  N15      1.0000 0.07930  0.48570  0.80860  Biso   1.000  N
  C47      1.0000 0.06500  0.53250  0.77180  Biso   1.000  C
  H33      1.0000 0.07710  0.52760  0.74740  Biso   1.000  H
  C48      1.0000 0.03280  0.58720  0.76960  Biso   1.000  C
  H34      1.0000 0.02230  0.61850  0.74330  Biso   1.000  H
  C49      1.0000 0.01560  0.59710  0.80570  Biso   1.000  C
  C50      1.0000 0.02820  0.54800  0.84140  Biso   1.000  C
  H35      1.0000 0.01580  0.54870  0.86570  Biso   1.000  H
  C51      1.0000 0.06250  0.49300  0.84060  Biso   1.000  C
  H36      1.0000 0.07320  0.46010  0.86630  Biso   1.000  H
  C52      1.0000 0.94930  0.78470  0.78080  Biso   1.000  C
  N16      1.0000 0.92530  0.77720  0.81040  Biso   1.000  N
  C53      1.0000 0.93160  0.70230  0.83470  Biso   1.000  C
  N17      1.0000 0.96090  0.64230  0.83400  Biso   1.000  N
  C54      1.0000 0.98140  0.66020  0.80540  Biso   1.000  C
  N18      1.0000 0.97660  0.72740  0.77590  Biso   1.000  N
  N19      1.0000 0.81790  0.50130  0.97290  Biso   1.000  N
  C55      1.0000 0.78660  0.47030  0.94950  Biso   1.000  C
  H37      1.0000 0.76840  0.51280  0.93400  Biso   1.000  H
  C56      1.0000 0.77710  0.37600  0.94530  Biso   1.000  C
  H38      1.0000 0.75400  0.35500  0.92660  Biso   1.000  H
  C57      1.0000 0.80330  0.31640  0.96970  Biso   1.000  C
  C58      1.0000 0.83700  0.35050  0.99440  Biso   1.000  C
  H39      1.0000 0.85610  0.31050  0.01010  Biso   1.000  H
  C59      1.0000 0.84280  0.44370  0.99610  Biso   1.000  C
  H40      1.0000 0.86550  0.46730  0.01460  Biso   1.000  H
  N20      1.0000 0.87840  0.93870  0.10970  Biso   1.000  N
  C60      1.0000 0.88370  0.02340  0.10230  Biso   1.000  C
  H41      1.0000 0.90400  0.05410  0.12160  Biso   1.000  H
  C61      1.0000 0.86220  0.07350  0.06840  Biso   1.000  C
  H42      1.0000 0.86830  0.13560  0.06410  Biso   1.000  H
  C62      1.0000 0.83260  0.03160  0.04180  Biso   1.000  C
  C63      1.0000 0.82590  0.94010  0.05030  Biso   1.000  C
  H43      1.0000 0.80490  0.90880  0.03230  Biso   1.000  H
  C64      1.0000 0.84890  0.89510  0.08380  Biso   1.000  C
  H44      1.0000 0.84410  0.83260  0.08880  Biso   1.000  H
  N21      1.0000 0.66550  0.96280  0.86190  Biso   1.000  N
  C65      1.0000 0.68800  0.91870  0.89470  Biso   1.000  C
  H45      1.0000 0.68310  0.85570  0.89830  Biso   1.000  H
  C66      1.0000 0.71730  0.95860  0.92320  Biso   1.000  C
  H46      1.0000 0.73270  0.92300  0.94550  Biso   1.000  H
  C67      1.0000 0.72490  0.04890  0.92020  Biso   1.000  C
  C68      1.0000 0.70060  0.09870  0.88740  Biso   1.000  C
  H47      1.0000 0.70390  0.16240  0.88390  Biso   1.000  H
  C69      1.0000 0.67100  0.04990  0.85990  Biso   1.000  C
  H48      1.0000 0.65370  0.08330  0.83820  Biso   1.000  H
  C70      1.0000 0.79390  0.21650  0.97180  Biso   1.000  C
  N22      1.0000 0.81850  0.16900  0.00240  Biso   1.000  N
  C71      1.0000 0.80730  0.08400  0.00580  Biso   1.000  C
  N23      1.0000 0.77770  0.04200  0.98190  Biso   1.000  N
  C72      1.0000 0.75790  0.09500  0.95090  Biso   1.000  C
  N24      1.0000 0.76390  0.18310  0.94470  Biso   1.000  N
  Zn7      1.0000 0.32680  0.86010  0.46960  Biso   1.000  Zn
  I13      1.0000 0.26540  0.77990  0.45170  Biso   1.000  I
  I14      1.0000 0.36730  0.82650  0.54410  Biso   1.000  I
  Zn8      1.0000 0.62360  0.10800  0.30890  Biso   1.000  Zn
  I15      1.0000 0.64750  0.09840  0.24310  Biso   1.000  I
  I16      1.0000 0.60990  0.24740  0.34620  Biso   1.000  I
  Zn9      1.0000 0.90810  0.12260  0.65700  Biso   1.000  Zn
  I17      1.0000 0.96810  0.17510  0.62830  Biso   1.000  I
  I18      1.0000 0.86990  0.23340  0.69510  Biso   1.000  I
  Zn10     1.0000 0.82250  0.64750  0.97020  Biso   1.000  Zn
  I19      1.0000 0.75910  0.72310  0.94140  Biso   1.000  I
  I20      1.0000 0.87040  0.67910  0.03830  Biso   1.000  I
  I21      1.0000 0.97380  0.85510  0.12470  Biso   1.000  I
  I22      1.0000 0.87890  0.76020  0.19310  Biso   1.000  I
  Zn11     1.0000 0.62570  0.91020  0.81330  Biso   1.000  Zn
  I23      1.0000 0.65440  0.90380  0.74390  Biso   1.000  I
  I24      1.0000 0.60510  0.76220  0.84620  Biso   1.000  I
  Zn12     1.0000 0.83034  0.36240  0.48105  Biso   1.000  Zn
  I25      1.0000 0.76940  0.26837  0.45798  Biso   1.000  I
  I26      1.0000 0.87603  0.35070  0.55404  Biso   1.000  I
  Zn13     1.0000 0.12220  0.60910  0.32220  Biso   1.000  Zn
  I27      1.0000 0.14634  0.62070  0.24930  Biso   1.000  I
  I28      1.0000 0.09660  0.73690  0.35830  Biso   1.000  I
  Zn14     1.0000 0.41990  0.63240  0.65750  Biso   1.000  Zn
  I29      1.0000 0.47556  0.65340  0.61970  Biso   1.000  I
  I30      1.0000 0.38321  0.74630  0.69303  Biso   1.000  I
  Zn15     1.0000 0.33210  0.13830  0.97820  Biso   1.000  Zn
  I31      1.0000 0.27129  0.23500  0.95695  Biso   1.000  I
  I32      1.0000 0.38119  0.16130  0.04887  Biso   1.000  I
  Zn16     1.0000 0.41816  0.37130  0.15807  Biso   1.000  Zn
  I33      1.0000 0.47850  0.33680  0.12180  Biso   1.000  I
  I34      1.0000 0.38750  0.25660  0.20050  Biso   1.000  I
  Zn17     1.0000 0.12590  0.38490  0.81640  Biso   1.000  Zn
  I35      1.0000 0.14780  0.39930  0.74730  Biso   1.000  I
  I36      1.0000 0.10630  0.25390  0.85440  Biso   1.000  I
  N25      1.0000 0.86170  0.34180  0.43210  Biso   1.000  N
  C73      1.0000 0.84920  0.29380  0.39340  Biso   1.000  C
  H49      1.0000 0.82330  0.27100  0.38760  Biso   1.000  H
  C74      1.0000 0.87080  0.27800  0.36420  Biso   1.000  C
  H50      1.0000 0.86120  0.23970  0.34000  Biso   1.000  H
  C75      1.0000 0.90730  0.31670  0.36890  Biso   1.000  C
  C76      1.0000 0.91830  0.36400  0.40470  Biso   1.000  C
  H51      1.0000 0.94450  0.38480  0.41170  Biso   1.000  H
  C77      1.0000 0.89570  0.38500  0.43070  Biso   1.000  C
  H52      1.0000 0.90320  0.43460  0.45040  Biso   1.000  H
  N26      1.0000 0.07790  0.51450  0.31100  Biso   1.000  N
  C78      1.0000 0.06320  0.47080  0.27620  Biso   1.000  C
  H53      1.0000 0.07360  0.48070  0.25090  Biso   1.000  H
  C79      1.0000 0.03270  0.40950  0.27400  Biso   1.000  C
  H54      1.0000 0.02480  0.37330  0.24860  Biso   1.000  H
  C80      1.0000 0.01410  0.40070  0.30730  Biso   1.000  C
  C81      1.0000 0.03360  0.44040  0.34670  Biso   1.000  C
  H55      1.0000 0.02580  0.42770  0.37340  Biso   1.000  H
  C82      1.0000 0.06460  0.49870  0.34530  Biso   1.000  C
  H56      1.0000 0.07660  0.52860  0.37150  Biso   1.000  H
  N27      1.0000 0.93090  0.98020  0.20060  Biso   1.000  N
  C83      1.0000 0.90440  0.00540  0.22480  Biso   1.000  C
  H57      1.0000 0.88190  0.96870  0.22360  Biso   1.000  H
  C84      1.0000 0.90900  0.08290  0.25100  Biso   1.000  C
  H58      1.0000 0.88950  0.09960  0.26670  Biso   1.000  H
  C85      1.0000 0.94160  0.13420  0.25380  Biso   1.000  C
  C86      1.0000 0.96840  0.11240  0.23010  Biso   1.000  C
  H59      1.0000 0.99080  0.14950  0.23100  Biso   1.000  H
  C87      1.0000 0.96270  0.03390  0.20430  Biso   1.000  C
  H60      1.0000 0.98200  0.01750  0.18840  Biso   1.000  H
  C88      1.0000 0.93090  0.29910  0.33630  Biso   1.000  C
  N28      1.0000 0.95890  0.35900  0.33670  Biso   1.000  N
  C89      1.0000 0.98090  0.34370  0.30600  Biso   1.000  C
  N29      1.0000 0.97570  0.27310  0.27770  Biso   1.000  N
  C90      1.0000 0.94620  0.21600  0.28240  Biso   1.000  C
  N30      1.0000 0.92400  0.22710  0.31000  Biso   1.000  N
  N31      1.0000 0.16550  0.54270  0.36090  Biso   1.000  N
  C91      1.0000 0.18560  0.58670  0.39570  Biso   1.000  C
  H61      1.0000 0.17950  0.64860  0.40060  Biso   1.000  H
  C92      1.0000 0.21470  0.54390  0.42460  Biso   1.000  C
  H62      1.0000 0.22780  0.57520  0.44990  Biso   1.000  H
  C93      1.0000 0.22520  0.45400  0.41690  Biso   1.000  C
  C94      1.0000 0.20450  0.41100  0.38120  Biso   1.000  C
  H63      1.0000 0.21050  0.34960  0.37550  Biso   1.000  H
  C95      1.0000 0.17500  0.45500  0.35340  Biso   1.000  C
  H64      1.0000 0.16110  0.42380  0.32850  Biso   1.000  H
  N32      1.0000 0.37650  0.56350  0.61070  Biso   1.000  N
  C96      1.0000 0.34820  0.60300  0.58240  Biso   1.000  C
  H65      1.0000 0.34370  0.66600  0.58660  Biso   1.000  H
  C97      1.0000 0.32480  0.56140  0.54770  Biso   1.000  C
  H66      1.0000 0.30580  0.59530  0.52810  Biso   1.000  H
  C98      1.0000 0.32930  0.47020  0.54180  Biso   1.000  C
  C99      1.0000 0.35830  0.42480  0.57140  Biso   1.000  C
  H67      1.0000 0.36180  0.36100  0.56850  Biso   1.000  H
  C100     1.0000 0.38190  0.47160  0.60470  Biso   1.000  C
  H68      1.0000 0.40220  0.44020  0.62370  Biso   1.000  H
  N33      1.0000 0.31730  0.00070  0.47180  Biso   1.000  N
  C101     1.0000 0.28520  0.03470  0.44580  Biso   1.000  C
  H69      1.0000 0.26760  0.99430  0.42810  Biso   1.000  H
  C102     1.0000 0.27740  0.12630  0.44440  Biso   1.000  C
  H70      1.0000 0.25380  0.14820  0.42700  Biso   1.000  H
  C103     1.0000 0.30320  0.18670  0.46780  Biso   1.000  C
  C104     1.0000 0.33660  0.15110  0.49260  Biso   1.000  C
  H71      1.0000 0.35460  0.19060  0.51030  Biso   1.000  H
  C105     1.0000 0.34440  0.05960  0.49220  Biso   1.000  C
  H72      1.0000 0.36910  0.03750  0.50650  Biso   1.000  H
  C106     1.0000 0.25760  0.40900  0.44570  Biso   1.000  C
  N34      1.0000 0.27740  0.46080  0.47900  Biso   1.000  N
  C107     1.0000 0.30790  0.41960  0.50510  Biso   1.000  C
  N35      1.0000 0.31750  0.33000  0.49950  Biso   1.000  N
  C108     1.0000 0.29570  0.28670  0.46830  Biso   1.000  C
  N36      1.0000 0.26510  0.32180  0.43980  Biso   1.000  N
  N37      1.0000 0.43190  0.52240  0.70230  Biso   1.000  N
  C109     1.0000 0.41130  0.50800  0.72820  Biso   1.000  C
  H73      1.0000 0.39250  0.55250  0.73130  Biso   1.000  H
  C110     1.0000 0.41350  0.42840  0.75430  Biso   1.000  C
  H74      1.0000 0.39490  0.41660  0.77180  Biso   1.000  H
  C111     1.0000 0.44320  0.36980  0.75340  Biso   1.000  C
  C112     1.0000 0.46830  0.39220  0.72680  Biso   1.000  C
  H75      1.0000 0.49040  0.35500  0.72640  Biso   1.000  H
  C113     1.0000 0.46150  0.46920  0.70050  Biso   1.000  C
  H76      1.0000 0.47830  0.48320  0.68110  Biso   1.000  H
  N38      1.0000 0.36130  0.15440  0.92610  Biso   1.000  N
  C114     1.0000 0.39060  0.11000  0.92810  Biso   1.000  C
  H77      1.0000 0.39790  0.06880  0.95170  Biso   1.000  H
  C115     1.0000 0.41530  0.11800  0.89590  Biso   1.000  C
  H78      1.0000 0.43610  0.07630  0.89570  Biso   1.000  H
  C116     1.0000 0.40710  0.18650  0.86630  Biso   1.000  C
  C117     1.0000 0.37390  0.23490  0.86590  Biso   1.000  C
  H79      1.0000 0.36570  0.28110  0.84470  Biso   1.000  H
  C118     1.0000 0.35230  0.21490  0.89720  Biso   1.000  C
  H80      1.0000 0.32920  0.24890  0.89680  Biso   1.000  H
  N39      1.0000 0.57930  0.98570  0.80860  Biso   1.000  N
  C119     1.0000 0.56500  0.03250  0.77180  Biso   1.000  C
  H81      1.0000 0.57710  0.02760  0.74740  Biso   1.000  H
  C120     1.0000 0.53280  0.08720  0.76960  Biso   1.000  C
  H82      1.0000 0.52230  0.11850  0.74330  Biso   1.000  H
  C121     1.0000 0.51560  0.09710  0.80570  Biso   1.000  C
  C122     1.0000 0.52820  0.04800  0.84140  Biso   1.000  C
  H83      1.0000 0.51580  0.04870  0.86570  Biso   1.000  H
  C123     1.0000 0.56250  0.99300  0.84060  Biso   1.000  C
  H84      1.0000 0.57320  0.96010  0.86630  Biso   1.000  H
  C124     1.0000 0.44930  0.28470  0.78080  Biso   1.000  C
  N40      1.0000 0.42530  0.27720  0.81040  Biso   1.000  N
  C125     1.0000 0.43160  0.20230  0.83470  Biso   1.000  C
  N41      1.0000 0.46090  0.14230  0.83400  Biso   1.000  N
  C126     1.0000 0.48140  0.16020  0.80540  Biso   1.000  C
  N42      1.0000 0.47660  0.22740  0.77590  Biso   1.000  N
  N43      1.0000 0.31790  0.00130  0.97290  Biso   1.000  N
  C127     1.0000 0.28660  0.97030  0.94950  Biso   1.000  C
  H85      1.0000 0.26840  0.01280  0.93400  Biso   1.000  H
  C128     1.0000 0.27710  0.87600  0.94530  Biso   1.000  C
  H86      1.0000 0.25400  0.85500  0.92660  Biso   1.000  H
  C129     1.0000 0.30330  0.81640  0.96970  Biso   1.000  C
  C130     1.0000 0.33700  0.85050  0.99440  Biso   1.000  C
  H87      1.0000 0.35610  0.81050  0.01010  Biso   1.000  H
  C131     1.0000 0.34280  0.94370  0.99610  Biso   1.000  C
  H88      1.0000 0.36550  0.96730  0.01460  Biso   1.000  H
  N44      1.0000 0.37840  0.43870  0.10970  Biso   1.000  N
  C132     1.0000 0.38370  0.52340  0.10230  Biso   1.000  C
  H89      1.0000 0.40400  0.55410  0.12160  Biso   1.000  H
  C133     1.0000 0.36220  0.57350  0.06840  Biso   1.000  C
  H90      1.0000 0.36830  0.63560  0.06410  Biso   1.000  H
  C134     1.0000 0.33260  0.53160  0.04180  Biso   1.000  C
  C135     1.0000 0.32590  0.44010  0.05030  Biso   1.000  C
  H91      1.0000 0.30490  0.40880  0.03230  Biso   1.000  H
  C136     1.0000 0.34890  0.39510  0.08380  Biso   1.000  C
  H92      1.0000 0.34410  0.33260  0.08880  Biso   1.000  H
  N45      1.0000 0.16550  0.46280  0.86190  Biso   1.000  N
  C137     1.0000 0.18800  0.41870  0.89470  Biso   1.000  C
  H93      1.0000 0.18310  0.35570  0.89830  Biso   1.000  H
  C138     1.0000 0.21730  0.45860  0.92320  Biso   1.000  C
  H94      1.0000 0.23270  0.42300  0.94550  Biso   1.000  H
  C139     1.0000 0.22490  0.54890  0.92020  Biso   1.000  C
  C140     1.0000 0.20060  0.59870  0.88740  Biso   1.000  C
  H95      1.0000 0.20390  0.66240  0.88390  Biso   1.000  H
  C141     1.0000 0.17100  0.54990  0.85990  Biso   1.000  C
  H96      1.0000 0.15370  0.58330  0.83820  Biso   1.000  H
  C142     1.0000 0.29390  0.71650  0.97180  Biso   1.000  C
  N46      1.0000 0.31850  0.66900  0.00240  Biso   1.000  N
  C143     1.0000 0.30730  0.58400  0.00580  Biso   1.000  C
  N47      1.0000 0.27770  0.54200  0.98190  Biso   1.000  N
  C144     1.0000 0.25790  0.59500  0.95090  Biso   1.000  C
  N48      1.0000 0.26390  0.68310  0.94470  Biso   1.000  N
  Zn18     1.0000 0.82680  0.36010  0.46960  Biso   1.000  Zn
  I37      1.0000 0.76540  0.27990  0.45170  Biso   1.000  I
  I38      1.0000 0.86730  0.32650  0.54410  Biso   1.000  I
  Zn19     1.0000 0.12360  0.60800  0.30890  Biso   1.000  Zn
  I39      1.0000 0.14750  0.59840  0.24310  Biso   1.000  I
  I40      1.0000 0.10990  0.74740  0.34620  Biso   1.000  I
  Zn20     1.0000 0.40810  0.62260  0.65700  Biso   1.000  Zn
  I41      1.0000 0.46810  0.67510  0.62830  Biso   1.000  I
  I42      1.0000 0.36990  0.73340  0.69510  Biso   1.000  I
  Zn21     1.0000 0.32250  0.14750  0.97020  Biso   1.000  Zn
  I43      1.0000 0.25910  0.22310  0.94140  Biso   1.000  I
  I44      1.0000 0.37040  0.17910  0.03830  Biso   1.000  I
  I45      1.0000 0.47380  0.35510  0.12470  Biso   1.000  I
  I46      1.0000 0.37890  0.26020  0.19310  Biso   1.000  I
  Zn22     1.0000 0.12570  0.41020  0.81330  Biso   1.000  Zn
  I47      1.0000 0.15440  0.40380  0.74390  Biso   1.000  I
  I48      1.0000 0.10510  0.26220  0.84620  Biso   1.000  I
  Zn23     1.0000 0.66966  0.86240  0.51895  Biso   1.000  Zn
  I49      1.0000 0.73060  0.76837  0.54202  Biso   1.000  I
  I50      1.0000 0.62397  0.85070  0.44596  Biso   1.000  I
  Zn24     1.0000 0.37780  0.10910  0.67780  Biso   1.000  Zn
  I51      1.0000 0.35366  0.12070  0.75070  Biso   1.000  I
  I52      1.0000 0.40340  0.23690  0.64170  Biso   1.000  I
  Zn25     1.0000 0.08010  0.13240  0.34250  Biso   1.000  Zn
  I53      1.0000 0.02444  0.15340  0.38030  Biso   1.000  I
  I54      1.0000 0.11679  0.24630  0.30697  Biso   1.000  I
  Zn26     1.0000 0.16790  0.63830  0.02180  Biso   1.000  Zn
  I55      1.0000 0.22871  0.73500  0.04305  Biso   1.000  I
  I56      1.0000 0.11881  0.66130  0.95113  Biso   1.000  I
  Zn27     1.0000 0.08184  0.87130  0.84193  Biso   1.000  Zn
  I57      1.0000 0.02150  0.83680  0.87820  Biso   1.000  I
  I58      1.0000 0.11250  0.75660  0.79950  Biso   1.000  I
  Zn28     1.0000 0.37410  0.88490  0.18360  Biso   1.000  Zn
  I59      1.0000 0.35220  0.89930  0.25270  Biso   1.000  I
  I60      1.0000 0.39370  0.75390  0.14560  Biso   1.000  I
  N49      1.0000 0.63830  0.84180  0.56790  Biso   1.000  N
  C145     1.0000 0.65080  0.79380  0.60660  Biso   1.000  C
  H97      1.0000 0.67670  0.77100  0.61240  Biso   1.000  H
  C146     1.0000 0.62920  0.77800  0.63580  Biso   1.000  C
  H98      1.0000 0.63880  0.73970  0.66000  Biso   1.000  H
  C147     1.0000 0.59270  0.81670  0.63110  Biso   1.000  C
  C148     1.0000 0.58170  0.86400  0.59530  Biso   1.000  C
  H99      1.0000 0.55550  0.88480  0.58830  Biso   1.000  H
  C149     1.0000 0.60430  0.88500  0.56930  Biso   1.000  C
  H100     1.0000 0.59680  0.93460  0.54960  Biso   1.000  H
  N50      1.0000 0.42210  0.01450  0.68900  Biso   1.000  N
  C150     1.0000 0.43680  0.97080  0.72380  Biso   1.000  C
  H101     1.0000 0.42640  0.98070  0.74910  Biso   1.000  H
  C151     1.0000 0.46730  0.90950  0.72600  Biso   1.000  C
  H102     1.0000 0.47520  0.87330  0.75140  Biso   1.000  H
  C152     1.0000 0.48590  0.90070  0.69270  Biso   1.000  C
  C153     1.0000 0.46640  0.94040  0.65330  Biso   1.000  C
  H103     1.0000 0.47420  0.92770  0.62660  Biso   1.000  H
  C154     1.0000 0.43540  0.99870  0.65470  Biso   1.000  C
  H104     1.0000 0.42340  0.02860  0.62850  Biso   1.000  H
  N51      1.0000 0.56910  0.48020  0.79940  Biso   1.000  N
  C155     1.0000 0.59560  0.50540  0.77520  Biso   1.000  C
  H105     1.0000 0.61810  0.46870  0.77640  Biso   1.000  H
  C156     1.0000 0.59100  0.58290  0.74900  Biso   1.000  C
  H106     1.0000 0.61050  0.59960  0.73330  Biso   1.000  H
  C157     1.0000 0.55840  0.63420  0.74620  Biso   1.000  C
  C158     1.0000 0.53160  0.61240  0.76990  Biso   1.000  C
  H107     1.0000 0.50920  0.64950  0.76900  Biso   1.000  H
  C159     1.0000 0.53730  0.53390  0.79570  Biso   1.000  C
  H108     1.0000 0.51800  0.51750  0.81160  Biso   1.000  H
  C160     1.0000 0.56910  0.79910  0.66370  Biso   1.000  C
  N52      1.0000 0.54110  0.85900  0.66330  Biso   1.000  N
  C161     1.0000 0.51910  0.84370  0.69400  Biso   1.000  C
  N53      1.0000 0.52430  0.77310  0.72230  Biso   1.000  N
  C162     1.0000 0.55380  0.71600  0.71760  Biso   1.000  C
  N54      1.0000 0.57600  0.72710  0.69000  Biso   1.000  N
  N55      1.0000 0.33450  0.04270  0.63910  Biso   1.000  N
  C163     1.0000 0.31440  0.08670  0.60430  Biso   1.000  C
  H109     1.0000 0.32050  0.14860  0.59940  Biso   1.000  H
  C164     1.0000 0.28530  0.04390  0.57540  Biso   1.000  C
  H110     1.0000 0.27220  0.07520  0.55010  Biso   1.000  H
  C165     1.0000 0.27480  0.95400  0.58310  Biso   1.000  C
  C166     1.0000 0.29550  0.91100  0.61880  Biso   1.000  C
  H111     1.0000 0.28950  0.84960  0.62450  Biso   1.000  H
  C167     1.0000 0.32500  0.95500  0.64660  Biso   1.000  C
  H112     1.0000 0.33890  0.92380  0.67150  Biso   1.000  H
  N56      1.0000 0.12350  0.06350  0.38930  Biso   1.000  N
  C168     1.0000 0.15180  0.10300  0.41760  Biso   1.000  C
  H113     1.0000 0.15630  0.16600  0.41340  Biso   1.000  H
  C169     1.0000 0.17520  0.06140  0.45230  Biso   1.000  C
  H114     1.0000 0.19420  0.09530  0.47190  Biso   1.000  H
  C170     1.0000 0.17070  0.97020  0.45820  Biso   1.000  C
  C171     1.0000 0.14170  0.92480  0.42860  Biso   1.000  C
  H115     1.0000 0.13820  0.86100  0.43150  Biso   1.000  H
  C172     1.0000 0.11810  0.97160  0.39530  Biso   1.000  C
  H116     1.0000 0.09780  0.94020  0.37630  Biso   1.000  H
  N57      1.0000 0.18270  0.50070  0.52820  Biso   1.000  N
  C173     1.0000 0.21480  0.53470  0.55420  Biso   1.000  C
  H117     1.0000 0.23240  0.49430  0.57190  Biso   1.000  H
  C174     1.0000 0.22260  0.62630  0.55560  Biso   1.000  C
  H118     1.0000 0.24620  0.64820  0.57300  Biso   1.000  H
  C175     1.0000 0.19680  0.68670  0.53220  Biso   1.000  C
  C176     1.0000 0.16340  0.65110  0.50740  Biso   1.000  C
  H119     1.0000 0.14540  0.69060  0.48970  Biso   1.000  H
  C177     1.0000 0.15560  0.55960  0.50780  Biso   1.000  C
  H120     1.0000 0.13090  0.53750  0.49350  Biso   1.000  H
  C178     1.0000 0.24240  0.90900  0.55430  Biso   1.000  C
  N58      1.0000 0.22260  0.96080  0.52100  Biso   1.000  N
  C179     1.0000 0.19210  0.91960  0.49490  Biso   1.000  C
  N59      1.0000 0.18250  0.83000  0.50050  Biso   1.000  N
  C180     1.0000 0.20430  0.78670  0.53170  Biso   1.000  C
  N60      1.0000 0.23490  0.82180  0.56020  Biso   1.000  N
  N61      1.0000 0.06810  0.02240  0.29770  Biso   1.000  N
  C181     1.0000 0.08870  0.00800  0.27180  Biso   1.000  C
  H121     1.0000 0.10750  0.05250  0.26870  Biso   1.000  H
  C182     1.0000 0.08650  0.92840  0.24570  Biso   1.000  C
  H122     1.0000 0.10510  0.91660  0.22820  Biso   1.000  H
  C183     1.0000 0.05680  0.86980  0.24660  Biso   1.000  C
  C184     1.0000 0.03170  0.89220  0.27320  Biso   1.000  C
  H123     1.0000 0.00960  0.85500  0.27360  Biso   1.000  H
  C185     1.0000 0.03850  0.96920  0.29950  Biso   1.000  C
  H124     1.0000 0.02170  0.98320  0.31890  Biso   1.000  H
  N62      1.0000 0.13870  0.65440  0.07390  Biso   1.000  N
  C186     1.0000 0.10940  0.61000  0.07190  Biso   1.000  C
  H125     1.0000 0.10210  0.56880  0.04830  Biso   1.000  H
  C187     1.0000 0.08470  0.61800  0.10410  Biso   1.000  C
  H126     1.0000 0.06390  0.57630  0.10430  Biso   1.000  H
  C188     1.0000 0.09290  0.68650  0.13370  Biso   1.000  C
  C189     1.0000 0.12610  0.73490  0.13410  Biso   1.000  C
  H127     1.0000 0.13430  0.78110  0.15530  Biso   1.000  H
  C190     1.0000 0.14770  0.71490  0.10280  Biso   1.000  C
  H128     1.0000 0.17080  0.74890  0.10320  Biso   1.000  H
  N63      1.0000 0.92070  0.48570  0.19140  Biso   1.000  N
  C191     1.0000 0.93500  0.53250  0.22820  Biso   1.000  C
  H129     1.0000 0.92290  0.52760  0.25260  Biso   1.000  H
  C192     1.0000 0.96720  0.58720  0.23040  Biso   1.000  C
  H130     1.0000 0.97770  0.61850  0.25670  Biso   1.000  H
  C193     1.0000 0.98440  0.59710  0.19430  Biso   1.000  C
  C194     1.0000 0.97180  0.54800  0.15860  Biso   1.000  C
  H131     1.0000 0.98420  0.54870  0.13430  Biso   1.000  H
  C195     1.0000 0.93750  0.49300  0.15940  Biso   1.000  C
  H132     1.0000 0.92680  0.46010  0.13370  Biso   1.000  H
  C196     1.0000 0.05070  0.78470  0.21920  Biso   1.000  C
  N64      1.0000 0.07470  0.77720  0.18960  Biso   1.000  N
  C197     1.0000 0.06840  0.70230  0.16530  Biso   1.000  C
  N65      1.0000 0.03910  0.64230  0.16600  Biso   1.000  N
  C198     1.0000 0.01860  0.66020  0.19460  Biso   1.000  C
  N66      1.0000 0.02340  0.72740  0.22410  Biso   1.000  N
  N67      1.0000 0.18210  0.50130  0.02710  Biso   1.000  N
  C199     1.0000 0.21340  0.47030  0.05050  Biso   1.000  C
  H133     1.0000 0.23160  0.51280  0.06600  Biso   1.000  H
  C200     1.0000 0.22290  0.37600  0.05470  Biso   1.000  C
  H134     1.0000 0.24600  0.35500  0.07340  Biso   1.000  H
  C201     1.0000 0.19670  0.31640  0.03030  Biso   1.000  C
  C202     1.0000 0.16300  0.35050  0.00560  Biso   1.000  C
  H135     1.0000 0.14390  0.31050  0.98990  Biso   1.000  H
  C203     1.0000 0.15720  0.44370  0.00390  Biso   1.000  C
  H136     1.0000 0.13450  0.46730  0.98540  Biso   1.000  H
  N68      1.0000 0.12160  0.93870  0.89030  Biso   1.000  N
  C204     1.0000 0.11630  0.02340  0.89770  Biso   1.000  C
  H137     1.0000 0.09600  0.05410  0.87840  Biso   1.000  H
  C205     1.0000 0.13780  0.07350  0.93160  Biso   1.000  C
  H138     1.0000 0.13170  0.13560  0.93590  Biso   1.000  H
  C206     1.0000 0.16740  0.03160  0.95820  Biso   1.000  C
  C207     1.0000 0.17410  0.94010  0.94970  Biso   1.000  C
  H139     1.0000 0.19510  0.90880  0.96770  Biso   1.000  H
  C208     1.0000 0.15110  0.89510  0.91620  Biso   1.000  C
  H140     1.0000 0.15590  0.83260  0.91120  Biso   1.000  H
  N69      1.0000 0.33450  0.96280  0.13810  Biso   1.000  N
  C209     1.0000 0.31200  0.91870  0.10530  Biso   1.000  C
  H141     1.0000 0.31690  0.85570  0.10170  Biso   1.000  H
  C210     1.0000 0.28270  0.95860  0.07680  Biso   1.000  C
  H142     1.0000 0.26730  0.92300  0.05450  Biso   1.000  H
  C211     1.0000 0.27510  0.04890  0.07980  Biso   1.000  C
  C212     1.0000 0.29940  0.09870  0.11260  Biso   1.000  C
  H143     1.0000 0.29610  0.16240  0.11610  Biso   1.000  H
  C213     1.0000 0.32900  0.04990  0.14010  Biso   1.000  C
  H144     1.0000 0.34630  0.08330  0.16180  Biso   1.000  H
  C214     1.0000 0.20610  0.21650  0.02820  Biso   1.000  C
  N70      1.0000 0.18150  0.16900  0.99760  Biso   1.000  N
  C215     1.0000 0.19270  0.08400  0.99420  Biso   1.000  C
  N71      1.0000 0.22230  0.04200  0.01810  Biso   1.000  N
  C216     1.0000 0.24210  0.09500  0.04910  Biso   1.000  C
  N72      1.0000 0.23610  0.18310  0.05530  Biso   1.000  N
  Zn29     1.0000 0.67320  0.86010  0.53040  Biso   1.000  Zn
  I61      1.0000 0.73460  0.77990  0.54830  Biso   1.000  I
  I62      1.0000 0.63270  0.82650  0.45590  Biso   1.000  I
  Zn30     1.0000 0.37640  0.10800  0.69110  Biso   1.000  Zn
  I63      1.0000 0.35250  0.09840  0.75690  Biso   1.000  I
  I64      1.0000 0.39010  0.24740  0.65380  Biso   1.000  I
  Zn31     1.0000 0.09190  0.12260  0.34300  Biso   1.000  Zn
  I65      1.0000 0.03190  0.17510  0.37170  Biso   1.000  I
  I66      1.0000 0.13010  0.23340  0.30490  Biso   1.000  I
  Zn32     1.0000 0.17750  0.64750  0.02980  Biso   1.000  Zn
  I67      1.0000 0.24090  0.72310  0.05860  Biso   1.000  I
  I68      1.0000 0.12960  0.67910  0.96170  Biso   1.000  I
  I69      1.0000 0.02620  0.85510  0.87530  Biso   1.000  I
  I70      1.0000 0.12110  0.76020  0.80690  Biso   1.000  I
  Zn33     1.0000 0.37430  0.91020  0.18670  Biso   1.000  Zn
  I71      1.0000 0.34560  0.90380  0.25610  Biso   1.000  I
  I72      1.0000 0.39490  0.76220  0.15380  Biso   1.000  I
  Zn34     1.0000 0.16966  0.36240  0.51895  Biso   1.000  Zn
  I73      1.0000 0.23060  0.26837  0.54202  Biso   1.000  I
  I74      1.0000 0.12397  0.35070  0.44596  Biso   1.000  I
  Zn35     1.0000 0.87780  0.60910  0.67780  Biso   1.000  Zn
  I75      1.0000 0.85366  0.62070  0.75070  Biso   1.000  I
  I76      1.0000 0.90340  0.73690  0.64170  Biso   1.000  I
  Zn36     1.0000 0.58010  0.63240  0.34250  Biso   1.000  Zn
  I77      1.0000 0.52444  0.65340  0.38030  Biso   1.000  I
  I78      1.0000 0.61679  0.74630  0.30697  Biso   1.000  I
  Zn37     1.0000 0.66790  0.13830  0.02180  Biso   1.000  Zn
  I79      1.0000 0.72871  0.23500  0.04305  Biso   1.000  I
  I80      1.0000 0.61881  0.16130  0.95113  Biso   1.000  I
  Zn38     1.0000 0.58184  0.37130  0.84193  Biso   1.000  Zn
  I81      1.0000 0.52150  0.33680  0.87820  Biso   1.000  I
  I82      1.0000 0.61250  0.25660  0.79950  Biso   1.000  I
  Zn39     1.0000 0.87410  0.38490  0.18360  Biso   1.000  Zn
  I83      1.0000 0.85220  0.39930  0.25270  Biso   1.000  I
  I84      1.0000 0.89370  0.25390  0.14560  Biso   1.000  I
  N73      1.0000 0.13830  0.34180  0.56790  Biso   1.000  N
  C217     1.0000 0.15080  0.29380  0.60660  Biso   1.000  C
  H145     1.0000 0.17670  0.27100  0.61240  Biso   1.000  H
  C218     1.0000 0.12920  0.27800  0.63580  Biso   1.000  C
  H146     1.0000 0.13880  0.23970  0.66000  Biso   1.000  H
  C219     1.0000 0.09270  0.31670  0.63110  Biso   1.000  C
  C220     1.0000 0.08170  0.36400  0.59530  Biso   1.000  C
  H147     1.0000 0.05550  0.38480  0.58830  Biso   1.000  H
  C221     1.0000 0.10430  0.38500  0.56930  Biso   1.000  C
  H148     1.0000 0.09680  0.43460  0.54960  Biso   1.000  H
  N74      1.0000 0.92210  0.51450  0.68900  Biso   1.000  N
  C222     1.0000 0.93680  0.47080  0.72380  Biso   1.000  C
  H149     1.0000 0.92640  0.48070  0.74910  Biso   1.000  H
  C223     1.0000 0.96730  0.40950  0.72600  Biso   1.000  C
  H150     1.0000 0.97520  0.37330  0.75140  Biso   1.000  H
  C224     1.0000 0.98590  0.40070  0.69270  Biso   1.000  C
  C225     1.0000 0.96640  0.44040  0.65330  Biso   1.000  C
  H151     1.0000 0.97420  0.42770  0.62660  Biso   1.000  H
  C226     1.0000 0.93540  0.49870  0.65470  Biso   1.000  C
  H152     1.0000 0.92340  0.52860  0.62850  Biso   1.000  H
  N75      1.0000 0.06910  0.98020  0.79940  Biso   1.000  N
  C227     1.0000 0.09560  0.00540  0.77520  Biso   1.000  C
  H153     1.0000 0.11810  0.96870  0.77640  Biso   1.000  H
  C228     1.0000 0.09100  0.08290  0.74900  Biso   1.000  C
  H154     1.0000 0.11050  0.09960  0.73330  Biso   1.000  H
  C229     1.0000 0.05840  0.13420  0.74620  Biso   1.000  C
  C230     1.0000 0.03160  0.11240  0.76990  Biso   1.000  C
  H155     1.0000 0.00920  0.14950  0.76900  Biso   1.000  H
  C231     1.0000 0.03730  0.03390  0.79570  Biso   1.000  C
  H156     1.0000 0.01800  0.01750  0.81160  Biso   1.000  H
  C232     1.0000 0.06910  0.29910  0.66370  Biso   1.000  C
  N76      1.0000 0.04110  0.35900  0.66330  Biso   1.000  N
  C233     1.0000 0.01910  0.34370  0.69400  Biso   1.000  C
  N77      1.0000 0.02430  0.27310  0.72230  Biso   1.000  N
  C234     1.0000 0.05380  0.21600  0.71760  Biso   1.000  C
  N78      1.0000 0.07600  0.22710  0.69000  Biso   1.000  N
  N79      1.0000 0.83450  0.54270  0.63910  Biso   1.000  N
  C235     1.0000 0.81440  0.58670  0.60430  Biso   1.000  C
  H157     1.0000 0.82050  0.64860  0.59940  Biso   1.000  H
  C236     1.0000 0.78530  0.54390  0.57540  Biso   1.000  C
  H158     1.0000 0.77220  0.57520  0.55010  Biso   1.000  H
  C237     1.0000 0.77480  0.45400  0.58310  Biso   1.000  C
  C238     1.0000 0.79550  0.41100  0.61880  Biso   1.000  C
  H159     1.0000 0.78950  0.34960  0.62450  Biso   1.000  H
  C239     1.0000 0.82500  0.45500  0.64660  Biso   1.000  C
  H160     1.0000 0.83890  0.42380  0.67150  Biso   1.000  H
  N80      1.0000 0.62350  0.56350  0.38930  Biso   1.000  N
  C240     1.0000 0.65180  0.60300  0.41760  Biso   1.000  C
  H161     1.0000 0.65630  0.66600  0.41340  Biso   1.000  H
  C241     1.0000 0.67520  0.56140  0.45230  Biso   1.000  C
  H162     1.0000 0.69420  0.59530  0.47190  Biso   1.000  H
  C242     1.0000 0.67070  0.47020  0.45820  Biso   1.000  C
  C243     1.0000 0.64170  0.42480  0.42860  Biso   1.000  C
  H163     1.0000 0.63820  0.36100  0.43150  Biso   1.000  H
  C244     1.0000 0.61810  0.47160  0.39530  Biso   1.000  C
  H164     1.0000 0.59780  0.44020  0.37630  Biso   1.000  H
  N81      1.0000 0.68270  0.00070  0.52820  Biso   1.000  N
  C245     1.0000 0.71480  0.03470  0.55420  Biso   1.000  C
  H165     1.0000 0.73240  0.99430  0.57190  Biso   1.000  H
  C246     1.0000 0.72260  0.12630  0.55560  Biso   1.000  C
  H166     1.0000 0.74620  0.14820  0.57300  Biso   1.000  H
  C247     1.0000 0.69680  0.18670  0.53220  Biso   1.000  C
  C248     1.0000 0.66340  0.15110  0.50740  Biso   1.000  C
  H167     1.0000 0.64540  0.19060  0.48970  Biso   1.000  H
  C249     1.0000 0.65560  0.05960  0.50780  Biso   1.000  C
  H168     1.0000 0.63090  0.03750  0.49350  Biso   1.000  H
  C250     1.0000 0.74240  0.40900  0.55430  Biso   1.000  C
  N82      1.0000 0.72260  0.46080  0.52100  Biso   1.000  N
  C251     1.0000 0.69210  0.41960  0.49490  Biso   1.000  C
  N83      1.0000 0.68250  0.33000  0.50050  Biso   1.000  N
  C252     1.0000 0.70430  0.28670  0.53170  Biso   1.000  C
  N84      1.0000 0.73490  0.32180  0.56020  Biso   1.000  N
  N85      1.0000 0.56810  0.52240  0.29770  Biso   1.000  N
  C253     1.0000 0.58870  0.50800  0.27180  Biso   1.000  C
  H169     1.0000 0.60750  0.55250  0.26870  Biso   1.000  H
  C254     1.0000 0.58650  0.42840  0.24570  Biso   1.000  C
  H170     1.0000 0.60510  0.41660  0.22820  Biso   1.000  H
  C255     1.0000 0.55680  0.36980  0.24660  Biso   1.000  C
  C256     1.0000 0.53170  0.39220  0.27320  Biso   1.000  C
  H171     1.0000 0.50960  0.35500  0.27360  Biso   1.000  H
  C257     1.0000 0.53850  0.46920  0.29950  Biso   1.000  C
  H172     1.0000 0.52170  0.48320  0.31890  Biso   1.000  H
  N86      1.0000 0.63870  0.15440  0.07390  Biso   1.000  N
  C258     1.0000 0.60940  0.11000  0.07190  Biso   1.000  C
  H173     1.0000 0.60210  0.06880  0.04830  Biso   1.000  H
  C259     1.0000 0.58470  0.11800  0.10410  Biso   1.000  C
  H174     1.0000 0.56390  0.07630  0.10430  Biso   1.000  H
  C260     1.0000 0.59290  0.18650  0.13370  Biso   1.000  C
  C261     1.0000 0.62610  0.23490  0.13410  Biso   1.000  C
  H175     1.0000 0.63430  0.28110  0.15530  Biso   1.000  H
  C262     1.0000 0.64770  0.21490  0.10280  Biso   1.000  C
  H176     1.0000 0.67080  0.24890  0.10320  Biso   1.000  H
  N87      1.0000 0.42070  0.98570  0.19140  Biso   1.000  N
  C263     1.0000 0.43500  0.03250  0.22820  Biso   1.000  C
  H177     1.0000 0.42290  0.02760  0.25260  Biso   1.000  H
  C264     1.0000 0.46720  0.08720  0.23040  Biso   1.000  C
  H178     1.0000 0.47770  0.11850  0.25670  Biso   1.000  H
  C265     1.0000 0.48440  0.09710  0.19430  Biso   1.000  C
  C266     1.0000 0.47180  0.04800  0.15860  Biso   1.000  C
  H179     1.0000 0.48420  0.04870  0.13430  Biso   1.000  H
  C267     1.0000 0.43750  0.99300  0.15940  Biso   1.000  C
  H180     1.0000 0.42680  0.96010  0.13370  Biso   1.000  H
  C268     1.0000 0.55070  0.28470  0.21920  Biso   1.000  C
  N88      1.0000 0.57470  0.27720  0.18960  Biso   1.000  N
  C269     1.0000 0.56840  0.20230  0.16530  Biso   1.000  C
  N89      1.0000 0.53910  0.14230  0.16600  Biso   1.000  N
  C270     1.0000 0.51860  0.16020  0.19460  Biso   1.000  C
  N90      1.0000 0.52340  0.22740  0.22410  Biso   1.000  N
  N91      1.0000 0.68210  0.00130  0.02710  Biso   1.000  N
  C271     1.0000 0.71340  0.97030  0.05050  Biso   1.000  C
  H181     1.0000 0.73160  0.01280  0.06600  Biso   1.000  H
  C272     1.0000 0.72290  0.87600  0.05470  Biso   1.000  C
  H182     1.0000 0.74600  0.85500  0.07340  Biso   1.000  H
  C273     1.0000 0.69670  0.81640  0.03030  Biso   1.000  C
  C274     1.0000 0.66300  0.85050  0.00560  Biso   1.000  C
  H183     1.0000 0.64390  0.81050  0.98990  Biso   1.000  H
  C275     1.0000 0.65720  0.94370  0.00390  Biso   1.000  C
  H184     1.0000 0.63450  0.96730  0.98540  Biso   1.000  H
  N92      1.0000 0.62160  0.43870  0.89030  Biso   1.000  N
  C276     1.0000 0.61630  0.52340  0.89770  Biso   1.000  C
  H185     1.0000 0.59600  0.55410  0.87840  Biso   1.000  H
  C277     1.0000 0.63780  0.57350  0.93160  Biso   1.000  C
  H186     1.0000 0.63170  0.63560  0.93590  Biso   1.000  H
  C278     1.0000 0.66740  0.53160  0.95820  Biso   1.000  C
  C279     1.0000 0.67410  0.44010  0.94970  Biso   1.000  C
  H187     1.0000 0.69510  0.40880  0.96770  Biso   1.000  H
  C280     1.0000 0.65110  0.39510  0.91620  Biso   1.000  C
  H188     1.0000 0.65590  0.33260  0.91120  Biso   1.000  H
  N93      1.0000 0.83450  0.46280  0.13810  Biso   1.000  N
  C281     1.0000 0.81200  0.41870  0.10530  Biso   1.000  C
  H189     1.0000 0.81690  0.35570  0.10170  Biso   1.000  H
  C282     1.0000 0.78270  0.45860  0.07680  Biso   1.000  C
  H190     1.0000 0.76730  0.42300  0.05450  Biso   1.000  H
  C283     1.0000 0.77510  0.54890  0.07980  Biso   1.000  C
  C284     1.0000 0.79940  0.59870  0.11260  Biso   1.000  C
  H191     1.0000 0.79610  0.66240  0.11610  Biso   1.000  H
  C285     1.0000 0.82900  0.54990  0.14010  Biso   1.000  C
  H192     1.0000 0.84630  0.58330  0.16180  Biso   1.000  H
  C286     1.0000 0.70610  0.71650  0.02820  Biso   1.000  C
  N94      1.0000 0.68150  0.66900  0.99760  Biso   1.000  N
  C287     1.0000 0.69270  0.58400  0.99420  Biso   1.000  C
  N95      1.0000 0.72230  0.54200  0.01810  Biso   1.000  N
  C288     1.0000 0.74210  0.59500  0.04910  Biso   1.000  C
  N96      1.0000 0.73610  0.68310  0.05530  Biso   1.000  N
  Zn40     1.0000 0.17320  0.36010  0.53040  Biso   1.000  Zn
  I85      1.0000 0.23460  0.27990  0.54830  Biso   1.000  I
  I86      1.0000 0.13270  0.32650  0.45590  Biso   1.000  I
  Zn41     1.0000 0.87640  0.60800  0.69110  Biso   1.000  Zn
  I87      1.0000 0.85250  0.59840  0.75690  Biso   1.000  I
  I88      1.0000 0.89010  0.74740  0.65380  Biso   1.000  I
  Zn42     1.0000 0.59190  0.62260  0.34300  Biso   1.000  Zn
  I89      1.0000 0.53190  0.67510  0.37170  Biso   1.000  I
  I90      1.0000 0.63010  0.73340  0.30490  Biso   1.000  I
  Zn43     1.0000 0.67750  0.14750  0.02980  Biso   1.000  Zn
  I91      1.0000 0.74090  0.22310  0.05860  Biso   1.000  I
  I92      1.0000 0.62960  0.17910  0.96170  Biso   1.000  I
  I93      1.0000 0.52620  0.35510  0.87530  Biso   1.000  I
  I94      1.0000 0.62110  0.26020  0.80690  Biso   1.000  I
  Zn44     1.0000 0.87430  0.41020  0.18670  Biso   1.000  Zn
  I95      1.0000 0.84560  0.40380  0.25610  Biso   1.000  I
  I96      1.0000 0.89490  0.26220  0.15380  Biso   1.000  I
  C289     1.0000 0.98900  0.18800  0.86500  Biso   1.000  C
  H193     1.0000 0.01030  0.19950  0.84990  Biso   1.000  H
  H194     1.0000 0.97020  0.24010  0.85900  Biso   1.000  H
  C290     1.0000 0.00400  0.17900  0.91400  Biso   1.000  C
  H195     1.0000 0.98880  0.21890  0.93030  Biso   1.000  H
  H196     1.0000 0.03160  0.19960  0.92160  Biso   1.000  H
  C291     1.0000 0.00100  0.08000  0.92900  Biso   1.000  C
  H197     1.0000 0.01460  0.07410  0.96010  Biso   1.000  H
  H198     1.0000 0.01540  0.04000  0.91180  Biso   1.000  H
  C292     1.0000 0.95900  0.04500  0.92400  Biso   1.000  C
  H199     1.0000 0.95860  0.97850  0.92830  Biso   1.000  H
  H200     1.0000 0.94620  0.07510  0.94560  Biso   1.000  H
  C293     1.0000 0.93800  0.07000  0.87700  Biso   1.000  C
  H201     1.0000 0.92010  0.12170  0.87870  Biso   1.000  H
  H202     1.0000 0.92280  0.01750  0.86400  Biso   1.000  H
  C294     1.0000 0.96800  0.09800  0.84900  Biso   1.000  C
  H203     1.0000 0.98750  0.04910  0.85050  Biso   1.000  H
  H204     1.0000 0.95410  0.10500  0.81860  Biso   1.000  H
  C295     1.0000 0.98100  0.66500  0.01500  Biso   1.000  C
  H205     1.0000 0.95210  0.66950  0.00590  Biso   1.000  H
  H206     1.0000 0.98960  0.70850  0.03900  Biso   1.000  H
  C296     1.0000 0.99900  0.69000  0.97600  Biso   1.000  C
  H207     1.0000 0.01110  0.75130  0.98110  Biso   1.000  H
  H208     1.0000 0.97890  0.69190  0.94940  Biso   1.000  H
  C297     1.0000 0.03000  0.62100  0.97100  Biso   1.000  C
  H209     1.0000 0.05100  0.62110  0.99730  Biso   1.000  H
  H210     1.0000 0.04220  0.64080  0.94600  Biso   1.000  H
  C298     1.0000 0.01500  0.52300  0.96200  Biso   1.000  C
  H211     1.0000 0.00210  0.51680  0.93090  Biso   1.000  H
  H212     1.0000 0.03700  0.47960  0.96800  Biso   1.000  H
  C299     1.0000 0.98600  0.50200  0.99100  Biso   1.000  C
  H213     1.0000 0.95920  0.50790  0.97420  Biso   1.000  H
  H214     1.0000 0.98990  0.43850  0.00200  Biso   1.000  H
  C300     1.0000 0.99300  0.56800  0.02900  Biso   1.000  C
  H215     1.0000 0.02040  0.56740  0.04390  Biso   1.000  H
  H216     1.0000 0.97720  0.54800  0.05090  Biso   1.000  H
  C301     1.0000 0.91200  0.04400  0.97900  Biso   1.000  C
  H217     1.0000 0.91440  0.09540  0.99950  Biso   1.000  H
  H218     1.0000 0.88810  0.05160  0.95650  Biso   1.000  H
  C302     1.0000 0.91200  0.95300  0.00300  Biso   1.000  C
  H219     1.0000 0.92760  0.95790  0.03250  Biso   1.000  H
  H220     1.0000 0.88470  0.93820  0.00500  Biso   1.000  H
  C303     1.0000 0.92800  0.87800  0.97800  Biso   1.000  C
  H221     1.0000 0.91660  0.81830  0.98400  Biso   1.000  H
  H222     1.0000 0.95630  0.87440  0.98740  Biso   1.000  H
  C304     1.0000 0.91700  0.89800  0.92900  Biso   1.000  C
  H223     1.0000 0.92140  0.84310  0.91220  Biso   1.000  H
  H224     1.0000 0.88920  0.91490  0.92060  Biso   1.000  H
  C305     1.0000 0.94200  0.97600  0.91800  Biso   1.000  C
  H225     1.0000 0.92910  0.00610  0.89060  Biso   1.000  H
  H226     1.0000 0.96760  0.95270  0.91420  Biso   1.000  H
  C306     1.0000 0.94800  0.04500  0.95600  Biso   1.000  C
  H227     1.0000 0.97150  0.02960  0.97760  Biso   1.000  H
  H228     1.0000 0.95090  0.10720  0.94480  Biso   1.000  H
  C307     1.0000 0.93080  0.26200  0.99800  Biso   1.000  C
  H229     1.0000 0.90630  0.29710  0.99440  Biso   1.000  H
  H230     1.0000 0.92460  0.19650  0.99300  Biso   1.000  H
  C308     1.0000 0.95600  0.27700  0.04400  Biso   1.000  C
  H231     1.0000 0.98390  0.26520  0.04430  Biso   1.000  H
  H232     1.0000 0.94750  0.23760  0.06590  Biso   1.000  H
  C309     1.0000 0.94900  0.37900  0.05300  Biso   1.000  C
  H233     1.0000 0.92530  0.38650  0.06500  Biso   1.000  H
  H234     1.0000 0.97140  0.40390  0.07470  Biso   1.000  H
  C310     1.0000 0.94500  0.43100  0.01000  Biso   1.000  C
  H235     1.0000 0.95040  0.49710  0.01500  Biso   1.000  H
  H236     1.0000 0.91840  0.42430  0.99200  Biso   1.000  H
  C311     1.0000 0.97500  0.39000  0.98500  Biso   1.000  C
  H237     1.0000 0.00040  0.37960  0.00510  Biso   1.000  H
  H238     1.0000 0.97920  0.43000  0.96100  Biso   1.000  H
  C312     1.0000 0.95700  0.29700  0.96700  Biso   1.000  C
  H239     1.0000 0.94090  0.30620  0.93740  Biso   1.000  H
  H240     1.0000 0.97740  0.25250  0.96520  Biso   1.000  H
  C313     1.0000 0.96100  0.96000  0.99300  Biso   1.000  C
  H241     1.0000 0.97590  0.00380  0.97790  Biso   1.000  H
  H242     1.0000 0.98000  0.91600  0.00930  Biso   1.000  H
  C314     1.0000 0.94000  0.01200  0.02400  Biso   1.000  C
  H243     1.0000 0.92320  0.96820  0.03580  Biso   1.000  H
  H244     1.0000 0.95920  0.03660  0.04850  Biso   1.000  H
  C315     1.0000 0.91500  0.09000  0.00100  Biso   1.000  C
  H245     1.0000 0.93080  0.13660  0.99040  Biso   1.000  H
  H246     1.0000 0.90040  0.12010  0.02170  Biso   1.000  H
  C316     1.0000 0.88600  0.04700  0.96300  Biso   1.000  C
  H247     1.0000 0.89100  0.06970  0.93480  Biso   1.000  H
  H248     1.0000 0.85870  0.06400  0.96450  Biso   1.000  H
  C317     1.0000 0.89000  0.94200  0.96500  Biso   1.000  C
  H249     1.0000 0.88650  0.92100  0.99420  Biso   1.000  H
  H250     1.0000 0.87010  0.91380  0.94280  Biso   1.000  H
  C318     1.0000 0.93000  0.91000  0.95900  Biso   1.000  C
  H251     1.0000 0.93370  0.92420  0.92910  Biso   1.000  H
  H252     1.0000 0.93290  0.84320  0.96340  Biso   1.000  H
  C319     1.0000 0.01100  0.18800  0.13500  Biso   1.000  C
  H253     1.0000 0.98970  0.19950  0.15010  Biso   1.000  H
  H254     1.0000 0.02980  0.24010  0.14100  Biso   1.000  H
  C320     1.0000 0.99600  0.17900  0.08600  Biso   1.000  C
  H255     1.0000 0.01120  0.21890  0.06970  Biso   1.000  H
  H256     1.0000 0.96840  0.19960  0.07840  Biso   1.000  H
  C321     1.0000 0.99900  0.08000  0.07100  Biso   1.000  C
  H257     1.0000 0.98540  0.07410  0.03990  Biso   1.000  H
  H258     1.0000 0.98460  0.04000  0.08820  Biso   1.000  H
  C322     1.0000 0.04100  0.04500  0.07600  Biso   1.000  C
  H259     1.0000 0.04140  0.97850  0.07170  Biso   1.000  H
  H260     1.0000 0.05380  0.07510  0.05440  Biso   1.000  H
  C323     1.0000 0.06200  0.07000  0.12300  Biso   1.000  C
  H261     1.0000 0.07990  0.12170  0.12130  Biso   1.000  H
  H262     1.0000 0.07720  0.01750  0.13600  Biso   1.000  H
  C324     1.0000 0.03200  0.09800  0.15100  Biso   1.000  C
  H263     1.0000 0.01250  0.04910  0.14950  Biso   1.000  H
  H264     1.0000 0.04590  0.10500  0.18140  Biso   1.000  H
  C325     1.0000 0.01900  0.66500  0.98500  Biso   1.000  C
  H265     1.0000 0.04790  0.66950  0.99410  Biso   1.000  H
  H266     1.0000 0.01040  0.70850  0.96100  Biso   1.000  H
  C326     1.0000 0.00100  0.69000  0.02400  Biso   1.000  C
  H267     1.0000 0.98890  0.75130  0.01890  Biso   1.000  H
  H268     1.0000 0.02110  0.69190  0.05060  Biso   1.000  H
  C327     1.0000 0.97000  0.62100  0.02900  Biso   1.000  C
  H269     1.0000 0.94900  0.62110  0.00270  Biso   1.000  H
  H270     1.0000 0.95780  0.64080  0.05400  Biso   1.000  H
  C328     1.0000 0.98500  0.52300  0.03800  Biso   1.000  C
  H271     1.0000 0.99790  0.51680  0.06910  Biso   1.000  H
  H272     1.0000 0.96300  0.47960  0.03200  Biso   1.000  H
  C329     1.0000 0.01400  0.50200  0.00900  Biso   1.000  C
  H273     1.0000 0.04080  0.50790  0.02580  Biso   1.000  H
  H274     1.0000 0.01010  0.43850  0.99800  Biso   1.000  H
  C330     1.0000 0.00700  0.56800  0.97100  Biso   1.000  C
  H275     1.0000 0.97960  0.56740  0.95610  Biso   1.000  H
  H276     1.0000 0.02280  0.54800  0.94910  Biso   1.000  H
  C331     1.0000 0.08800  0.04400  0.02100  Biso   1.000  C
  H277     1.0000 0.08560  0.09540  0.00050  Biso   1.000  H
  H278     1.0000 0.11190  0.05160  0.04350  Biso   1.000  H
  C332     1.0000 0.08800  0.95300  0.99700  Biso   1.000  C
  H279     1.0000 0.07240  0.95790  0.96750  Biso   1.000  H
  H280     1.0000 0.11530  0.93820  0.99500  Biso   1.000  H
  C333     1.0000 0.07200  0.87800  0.02200  Biso   1.000  C
  H281     1.0000 0.08340  0.81830  0.01600  Biso   1.000  H
  H282     1.0000 0.04370  0.87440  0.01260  Biso   1.000  H
  C334     1.0000 0.08300  0.89800  0.07100  Biso   1.000  C
  H283     1.0000 0.07860  0.84310  0.08780  Biso   1.000  H
  H284     1.0000 0.11080  0.91490  0.07940  Biso   1.000  H
  C335     1.0000 0.05800  0.97600  0.08200  Biso   1.000  C
  H285     1.0000 0.07090  0.00610  0.10940  Biso   1.000  H
  H286     1.0000 0.03240  0.95270  0.08580  Biso   1.000  H
  C336     1.0000 0.05200  0.04500  0.04400  Biso   1.000  C
  H287     1.0000 0.02850  0.02960  0.02240  Biso   1.000  H
  H288     1.0000 0.04910  0.10720  0.05520  Biso   1.000  H
  C337     1.0000 0.06920  0.26200  0.00200  Biso   1.000  C
  H289     1.0000 0.09370  0.29710  0.00560  Biso   1.000  H
  H290     1.0000 0.07540  0.19650  0.00700  Biso   1.000  H
  C338     1.0000 0.04400  0.27700  0.95600  Biso   1.000  C
  H291     1.0000 0.01610  0.26520  0.95570  Biso   1.000  H
  H292     1.0000 0.05250  0.23760  0.93410  Biso   1.000  H
  C339     1.0000 0.05100  0.37900  0.94700  Biso   1.000  C
  H293     1.0000 0.07470  0.38650  0.93500  Biso   1.000  H
  H294     1.0000 0.02860  0.40390  0.92530  Biso   1.000  H
  C340     1.0000 0.05500  0.43100  0.99000  Biso   1.000  C
  H295     1.0000 0.04960  0.49710  0.98500  Biso   1.000  H
  H296     1.0000 0.08160  0.42430  0.00800  Biso   1.000  H
  C341     1.0000 0.02500  0.39000  0.01500  Biso   1.000  C
  H297     1.0000 0.99960  0.37960  0.99490  Biso   1.000  H
  H298     1.0000 0.02080  0.43000  0.03900  Biso   1.000  H
  C342     1.0000 0.04300  0.29700  0.03300  Biso   1.000  C
  H299     1.0000 0.05910  0.30620  0.06260  Biso   1.000  H
  H300     1.0000 0.02260  0.25250  0.03480  Biso   1.000  H
  C343     1.0000 0.03900  0.96000  0.00700  Biso   1.000  C
  H301     1.0000 0.02410  0.00380  0.02210  Biso   1.000  H
  H302     1.0000 0.02000  0.91600  0.99070  Biso   1.000  H
  C344     1.0000 0.06000  0.01200  0.97600  Biso   1.000  C
  H303     1.0000 0.07680  0.96820  0.96420  Biso   1.000  H
  H304     1.0000 0.04080  0.03660  0.95150  Biso   1.000  H
  C345     1.0000 0.08500  0.09000  0.99900  Biso   1.000  C
  H305     1.0000 0.06920  0.13660  0.00960  Biso   1.000  H
  H306     1.0000 0.09960  0.12010  0.97830  Biso   1.000  H
  C346     1.0000 0.11400  0.04700  0.03700  Biso   1.000  C
  H307     1.0000 0.10900  0.06970  0.06520  Biso   1.000  H
  H308     1.0000 0.14130  0.06400  0.03550  Biso   1.000  H
  C347     1.0000 0.11000  0.94200  0.03500  Biso   1.000  C
  H309     1.0000 0.11350  0.92100  0.00580  Biso   1.000  H
  H310     1.0000 0.12990  0.91380  0.05720  Biso   1.000  H
  C348     1.0000 0.07000  0.91000  0.04100  Biso   1.000  C
  H311     1.0000 0.06630  0.92420  0.07090  Biso   1.000  H
  H312     1.0000 0.06710  0.84320  0.03660  Biso   1.000  H
  C349     1.0000 0.48900  0.68800  0.86500  Biso   1.000  C
  H313     1.0000 0.51030  0.69950  0.84990  Biso   1.000  H
  H314     1.0000 0.47020  0.74010  0.85900  Biso   1.000  H
  C350     1.0000 0.50400  0.67900  0.91400  Biso   1.000  C
  H315     1.0000 0.48880  0.71890  0.93030  Biso   1.000  H
  H316     1.0000 0.53160  0.69960  0.92160  Biso   1.000  H
  C351     1.0000 0.50100  0.58000  0.92900  Biso   1.000  C
  H317     1.0000 0.51460  0.57410  0.96010  Biso   1.000  H
  H318     1.0000 0.51540  0.54000  0.91180  Biso   1.000  H
  C352     1.0000 0.45900  0.54500  0.92400  Biso   1.000  C
  H319     1.0000 0.45860  0.47850  0.92830  Biso   1.000  H
  H320     1.0000 0.44620  0.57510  0.94560  Biso   1.000  H
  C353     1.0000 0.43800  0.57000  0.87700  Biso   1.000  C
  H321     1.0000 0.42010  0.62170  0.87870  Biso   1.000  H
  H322     1.0000 0.42280  0.51750  0.86400  Biso   1.000  H
  C354     1.0000 0.46800  0.59800  0.84900  Biso   1.000  C
  H323     1.0000 0.48750  0.54910  0.85050  Biso   1.000  H
  H324     1.0000 0.45410  0.60500  0.81860  Biso   1.000  H
  C355     1.0000 0.48100  0.16500  0.01500  Biso   1.000  C
  H325     1.0000 0.45210  0.16950  0.00590  Biso   1.000  H
  H326     1.0000 0.48960  0.20850  0.03900  Biso   1.000  H
  C356     1.0000 0.49900  0.19000  0.97600  Biso   1.000  C
  H327     1.0000 0.51110  0.25130  0.98110  Biso   1.000  H
  H328     1.0000 0.47890  0.19190  0.94940  Biso   1.000  H
  C357     1.0000 0.53000  0.12100  0.97100  Biso   1.000  C
  H329     1.0000 0.55100  0.12110  0.99730  Biso   1.000  H
  H330     1.0000 0.54220  0.14080  0.94600  Biso   1.000  H
  C358     1.0000 0.51500  0.02300  0.96200  Biso   1.000  C
  H331     1.0000 0.50210  0.01680  0.93090  Biso   1.000  H
  H332     1.0000 0.53700  0.97960  0.96800  Biso   1.000  H
  C359     1.0000 0.48600  0.00200  0.99100  Biso   1.000  C
  H333     1.0000 0.45920  0.00790  0.97420  Biso   1.000  H
  H334     1.0000 0.48990  0.93850  0.00200  Biso   1.000  H
  C360     1.0000 0.49300  0.06800  0.02900  Biso   1.000  C
  H335     1.0000 0.52040  0.06740  0.04390  Biso   1.000  H
  H336     1.0000 0.47720  0.04800  0.05090  Biso   1.000  H
  C361     1.0000 0.41200  0.54400  0.97900  Biso   1.000  C
  H337     1.0000 0.41440  0.59540  0.99950  Biso   1.000  H
  H338     1.0000 0.38810  0.55160  0.95650  Biso   1.000  H
  C362     1.0000 0.41200  0.45300  0.00300  Biso   1.000  C
  H339     1.0000 0.42760  0.45790  0.03250  Biso   1.000  H
  H340     1.0000 0.38470  0.43820  0.00500  Biso   1.000  H
  C363     1.0000 0.42800  0.37800  0.97800  Biso   1.000  C
  H341     1.0000 0.41660  0.31830  0.98400  Biso   1.000  H
  H342     1.0000 0.45630  0.37440  0.98740  Biso   1.000  H
  C364     1.0000 0.41700  0.39800  0.92900  Biso   1.000  C
  H343     1.0000 0.42140  0.34310  0.91220  Biso   1.000  H
  H344     1.0000 0.38920  0.41490  0.92060  Biso   1.000  H
  C365     1.0000 0.44200  0.47600  0.91800  Biso   1.000  C
  H345     1.0000 0.42910  0.50610  0.89060  Biso   1.000  H
  H346     1.0000 0.46760  0.45270  0.91420  Biso   1.000  H
  C366     1.0000 0.44800  0.54500  0.95600  Biso   1.000  C
  H347     1.0000 0.47150  0.52960  0.97760  Biso   1.000  H
  H348     1.0000 0.45090  0.60720  0.94480  Biso   1.000  H
  C367     1.0000 0.43080  0.76200  0.99800  Biso   1.000  C
  H349     1.0000 0.40630  0.79710  0.99440  Biso   1.000  H
  H350     1.0000 0.42460  0.69650  0.99300  Biso   1.000  H
  C368     1.0000 0.45600  0.77700  0.04400  Biso   1.000  C
  H351     1.0000 0.48390  0.76520  0.04430  Biso   1.000  H
  H352     1.0000 0.44750  0.73760  0.06590  Biso   1.000  H
  C369     1.0000 0.44900  0.87900  0.05300  Biso   1.000  C
  H353     1.0000 0.42530  0.88650  0.06500  Biso   1.000  H
  H354     1.0000 0.47140  0.90390  0.07470  Biso   1.000  H
  C370     1.0000 0.44500  0.93100  0.01000  Biso   1.000  C
  H355     1.0000 0.45040  0.99710  0.01500  Biso   1.000  H
  H356     1.0000 0.41840  0.92430  0.99200  Biso   1.000  H
  C371     1.0000 0.47500  0.89000  0.98500  Biso   1.000  C
  H357     1.0000 0.50040  0.87960  0.00510  Biso   1.000  H
  H358     1.0000 0.47920  0.93000  0.96100  Biso   1.000  H
  C372     1.0000 0.45700  0.79700  0.96700  Biso   1.000  C
  H359     1.0000 0.44090  0.80620  0.93740  Biso   1.000  H
  H360     1.0000 0.47740  0.75250  0.96520  Biso   1.000  H
  C373     1.0000 0.46100  0.46000  0.99300  Biso   1.000  C
  H361     1.0000 0.47590  0.50380  0.97790  Biso   1.000  H
  H362     1.0000 0.48000  0.41600  0.00930  Biso   1.000  H
  C374     1.0000 0.44000  0.51200  0.02400  Biso   1.000  C
  H363     1.0000 0.42320  0.46820  0.03580  Biso   1.000  H
  H364     1.0000 0.45920  0.53660  0.04850  Biso   1.000  H
  C375     1.0000 0.41500  0.59000  0.00100  Biso   1.000  C
  H365     1.0000 0.43080  0.63660  0.99040  Biso   1.000  H
  H366     1.0000 0.40040  0.62010  0.02170  Biso   1.000  H
  C376     1.0000 0.38600  0.54700  0.96300  Biso   1.000  C
  H367     1.0000 0.39100  0.56970  0.93480  Biso   1.000  H
  H368     1.0000 0.35870  0.56400  0.96450  Biso   1.000  H
  C377     1.0000 0.39000  0.44200  0.96500  Biso   1.000  C
  H369     1.0000 0.38650  0.42100  0.99420  Biso   1.000  H
  H370     1.0000 0.37010  0.41380  0.94280  Biso   1.000  H
  C378     1.0000 0.43000  0.41000  0.95900  Biso   1.000  C
  H371     1.0000 0.43370  0.42420  0.92910  Biso   1.000  H
  H372     1.0000 0.43290  0.34320  0.96340  Biso   1.000  H
  C379     1.0000 0.51100  0.68800  0.13500  Biso   1.000  C
  H373     1.0000 0.48970  0.69950  0.15010  Biso   1.000  H
  H374     1.0000 0.52980  0.74010  0.14100  Biso   1.000  H
  C380     1.0000 0.49600  0.67900  0.08600  Biso   1.000  C
  H375     1.0000 0.51120  0.71890  0.06970  Biso   1.000  H
  H376     1.0000 0.46840  0.69960  0.07840  Biso   1.000  H
  C381     1.0000 0.49900  0.58000  0.07100  Biso   1.000  C
  H377     1.0000 0.48540  0.57410  0.03990  Biso   1.000  H
  H378     1.0000 0.48460  0.54000  0.08820  Biso   1.000  H
  C382     1.0000 0.54100  0.54500  0.07600  Biso   1.000  C
  H379     1.0000 0.54140  0.47850  0.07170  Biso   1.000  H
  H380     1.0000 0.55380  0.57510  0.05440  Biso   1.000  H
  C383     1.0000 0.56200  0.57000  0.12300  Biso   1.000  C
  H381     1.0000 0.57990  0.62170  0.12130  Biso   1.000  H
  H382     1.0000 0.57720  0.51750  0.13600  Biso   1.000  H
  C384     1.0000 0.53200  0.59800  0.15100  Biso   1.000  C
  H383     1.0000 0.51250  0.54910  0.14950  Biso   1.000  H
  H384     1.0000 0.54590  0.60500  0.18140  Biso   1.000  H
  C385     1.0000 0.51900  0.16500  0.98500  Biso   1.000  C
  H385     1.0000 0.54790  0.16950  0.99410  Biso   1.000  H
  H386     1.0000 0.51040  0.20850  0.96100  Biso   1.000  H
  C386     1.0000 0.50100  0.19000  0.02400  Biso   1.000  C
  H387     1.0000 0.48890  0.25130  0.01890  Biso   1.000  H
  H388     1.0000 0.52110  0.19190  0.05060  Biso   1.000  H
  C387     1.0000 0.47000  0.12100  0.02900  Biso   1.000  C
  H389     1.0000 0.44900  0.12110  0.00270  Biso   1.000  H
  H390     1.0000 0.45780  0.14080  0.05400  Biso   1.000  H
  C388     1.0000 0.48500  0.02300  0.03800  Biso   1.000  C
  H391     1.0000 0.49790  0.01680  0.06910  Biso   1.000  H
  H392     1.0000 0.46300  0.97960  0.03200  Biso   1.000  H
  C389     1.0000 0.51400  0.00200  0.00900  Biso   1.000  C
  H393     1.0000 0.54080  0.00790  0.02580  Biso   1.000  H
  H394     1.0000 0.51010  0.93850  0.99800  Biso   1.000  H
  C390     1.0000 0.50700  0.06800  0.97100  Biso   1.000  C
  H395     1.0000 0.47960  0.06740  0.95610  Biso   1.000  H
  H396     1.0000 0.52280  0.04800  0.94910  Biso   1.000  H
  C391     1.0000 0.58800  0.54400  0.02100  Biso   1.000  C
  H397     1.0000 0.58560  0.59540  0.00050  Biso   1.000  H
  H398     1.0000 0.61190  0.55160  0.04350  Biso   1.000  H
  C392     1.0000 0.58800  0.45300  0.99700  Biso   1.000  C
  H399     1.0000 0.57240  0.45790  0.96750  Biso   1.000  H
  H400     1.0000 0.61530  0.43820  0.99500  Biso   1.000  H
  C393     1.0000 0.57200  0.37800  0.02200  Biso   1.000  C
  H401     1.0000 0.58340  0.31830  0.01600  Biso   1.000  H
  H402     1.0000 0.54370  0.37440  0.01260  Biso   1.000  H
  C394     1.0000 0.58300  0.39800  0.07100  Biso   1.000  C
  H403     1.0000 0.57860  0.34310  0.08780  Biso   1.000  H
  H404     1.0000 0.61080  0.41490  0.07940  Biso   1.000  H
  C395     1.0000 0.55800  0.47600  0.08200  Biso   1.000  C
  H405     1.0000 0.57090  0.50610  0.10940  Biso   1.000  H
  H406     1.0000 0.53240  0.45270  0.08580  Biso   1.000  H
  C396     1.0000 0.55200  0.54500  0.04400  Biso   1.000  C
  H407     1.0000 0.52850  0.52960  0.02240  Biso   1.000  H
  H408     1.0000 0.54910  0.60720  0.05520  Biso   1.000  H
  C397     1.0000 0.56920  0.76200  0.00200  Biso   1.000  C
  H409     1.0000 0.59370  0.79710  0.00560  Biso   1.000  H
  H410     1.0000 0.57540  0.69650  0.00700  Biso   1.000  H
  C398     1.0000 0.54400  0.77700  0.95600  Biso   1.000  C
  H411     1.0000 0.51610  0.76520  0.95570  Biso   1.000  H
  H412     1.0000 0.55250  0.73760  0.93410  Biso   1.000  H
  C399     1.0000 0.55100  0.87900  0.94700  Biso   1.000  C
  H413     1.0000 0.57470  0.88650  0.93500  Biso   1.000  H
  H414     1.0000 0.52860  0.90390  0.92530  Biso   1.000  H
  C400     1.0000 0.55500  0.93100  0.99000  Biso   1.000  C
  H415     1.0000 0.54960  0.99710  0.98500  Biso   1.000  H
  H416     1.0000 0.58160  0.92430  0.00800  Biso   1.000  H
  C401     1.0000 0.52500  0.89000  0.01500  Biso   1.000  C
  H417     1.0000 0.49960  0.87960  0.99490  Biso   1.000  H
  H418     1.0000 0.52080  0.93000  0.03900  Biso   1.000  H
  C402     1.0000 0.54300  0.79700  0.03300  Biso   1.000  C
  H419     1.0000 0.55910  0.80620  0.06260  Biso   1.000  H
  H420     1.0000 0.52260  0.75250  0.03480  Biso   1.000  H
  C403     1.0000 0.53900  0.46000  0.00700  Biso   1.000  C
  H421     1.0000 0.52410  0.50380  0.02210  Biso   1.000  H
  H422     1.0000 0.52000  0.41600  0.99070  Biso   1.000  H
  C404     1.0000 0.56000  0.51200  0.97600  Biso   1.000  C
  H423     1.0000 0.57680  0.46820  0.96420  Biso   1.000  H
  H424     1.0000 0.54080  0.53660  0.95150  Biso   1.000  H
  C405     1.0000 0.58500  0.59000  0.99900  Biso   1.000  C
  H425     1.0000 0.56920  0.63660  0.00960  Biso   1.000  H
  H426     1.0000 0.59960  0.62010  0.97830  Biso   1.000  H
  C406     1.0000 0.61400  0.54700  0.03700  Biso   1.000  C
  H427     1.0000 0.60900  0.56970  0.06520  Biso   1.000  H
  H428     1.0000 0.64130  0.56400  0.03550  Biso   1.000  H
  C407     1.0000 0.61000  0.44200  0.03500  Biso   1.000  C
  H429     1.0000 0.61350  0.42100  0.00580  Biso   1.000  H
  H430     1.0000 0.62990  0.41380  0.05720  Biso   1.000  H
  C408     1.0000 0.57000  0.41000  0.04100  Biso   1.000  C
  H431     1.0000 0.56630  0.42420  0.07090  Biso   1.000  H
  H432     1.0000 0.56710  0.34320  0.03660  Biso   1.000  H
