data_image0
_cell_length_a       34.627
_cell_length_b       15.0818
_cell_length_c       31.194
_cell_angle_alpha    90
_cell_angle_beta     102.792
_cell_angle_gamma    90

_symmetry_space_group_name_H-M    "P 1"
_symmetry_int_tables_number       1

loop_
  _symmetry_equiv_pos_as_xyz
  'x, y, z'

loop_
  _atom_site_label
  _atom_site_occupancy
  _atom_site_fract_x
  _atom_site_fract_y
  _atom_site_fract_z
  _atom_site_thermal_displace_type
  _atom_site_B_iso_or_equiv
  _atom_site_type_symbol
  I1       1.0000 0.86480  0.66990  0.04550  Biso   1.000  I
  Zn1      1.0000 0.82230  0.64190  0.96960  Biso   1.000  Zn
  N1       1.0000 0.80630  0.50130  0.96510  Biso   1.000  N
  I2       1.0000 0.75700  0.72020  0.93870  Biso   1.000  I
  N2       1.0000 0.85370  0.65730  0.92270  Biso   1.000  N
  C1       1.0000 0.83440  0.45290  0.99430  Biso   1.000  C
  C2       1.0000 0.77600  0.46670  0.93840  Biso   1.000  C
  C3       1.0000 0.84160  0.70780  0.88660  Biso   1.000  C
  C4       1.0000 0.89120  0.62040  0.93020  Biso   1.000  C
  H1       1.0000 0.85630  0.48080  0.01330  Biso   1.000  H
  C5       1.0000 0.82910  0.36300  0.99450  Biso   1.000  C
  C6       1.0000 0.76990  0.37650  0.93890  Biso   1.000  C
  H2       1.0000 0.75810  0.50340  0.91850  Biso   1.000  H
  C7       1.0000 0.86670  0.72630  0.85710  Biso   1.000  C
  H3       1.0000 0.81560  0.73190  0.88060  Biso   1.000  H
  C8       1.0000 0.91720  0.63760  0.90370  Biso   1.000  C
  H4       1.0000 0.89920  0.58180  0.95450  Biso   1.000  H
  H5       1.0000 0.84810  0.32690  0.01340  Biso   1.000  H
  C9       1.0000 0.79610  0.32350  0.96720  Biso   1.000  C
  H6       1.0000 0.74750  0.35100  0.91970  Biso   1.000  H
  H7       1.0000 0.85750  0.76150  0.83160  Biso   1.000  H
  C10      1.0000 0.90440  0.69230  0.86600  Biso   1.000  C
  H8       1.0000 0.94320  0.61350  0.91040  Biso   1.000  H
  C11      1.0000 0.78990  0.22350  0.96860  Biso   1.000  C
  C12      1.0000 0.93220  0.70600  0.83580  Biso   1.000  C
  N3       1.0000 0.76010  0.19010  0.94020  Biso   1.000  N
  N4       1.0000 0.81600  0.18060  0.00160  Biso   1.000  N
  N5       1.0000 0.92350  0.77520  0.80930  Biso   1.000  N
  N6       1.0000 0.95900  0.64640  0.83770  Biso   1.000  N
  C13      1.0000 0.75590  0.09970  0.94700  Biso   1.000  C
  C14      1.0000 0.80950  0.09510  0.00360  Biso   1.000  C
  C15      1.0000 0.94810  0.78360  0.78220  Biso   1.000  C
  C16      1.0000 0.97960  0.65820  0.80800  Biso   1.000  C
  N7       1.0000 0.77920  0.05070  0.97680  Biso   1.000  N
  C17      1.0000 0.72580  0.05600  0.91530  Biso   1.000  C
  C18      1.0000 0.83430  0.04660  0.03850  Biso   1.000  C
  C19      1.0000 0.94430  0.86410  0.75370  Biso   1.000  C
  N8       1.0000 0.97610  0.72660  0.77860  Biso   1.000  N
  C20      1.0000 0.01280  0.59510  0.80510  Biso   1.000  C
  C21      1.0000 0.69970  0.10080  0.88100  Biso   1.000  C
  C22      1.0000 0.71970  0.96540  0.91790  Biso   1.000  C
  C23      1.0000 0.82840  0.95550  0.04470  Biso   1.000  C
  C24      1.0000 0.86480  0.08450  0.06920  Biso   1.000  C
  C25      1.0000 0.91390  0.92230  0.75040  Biso   1.000  C
  C26      1.0000 0.97250  0.88390  0.73020  Biso   1.000  C
  C27      1.0000 0.03080  0.58760  0.76940  Biso   1.000  C
  C28      1.0000 0.02490  0.53700  0.83930  Biso   1.000  C
  C29      1.0000 0.67060  0.04780  0.85260  Biso   1.000  C
  H9       1.0000 0.70140  0.16300  0.87690  Biso   1.000  H
  H10      1.0000 0.73650  0.93220  0.94040  Biso   1.000  H
  C30      1.0000 0.69100  0.92360  0.88970  Biso   1.000  C
  C31      1.0000 0.85430  0.90960  0.08030  Biso   1.000  C
  H11      1.0000 0.80750  0.92470  0.02570  Biso   1.000  H
  H12      1.0000 0.86740  0.14720  0.06920  Biso   1.000  H
  C32      1.0000 0.89090  0.03780  0.09900  Biso   1.000  C
  C33      1.0000 0.91140  0.99180  0.72030  Biso   1.000  C
  H13      1.0000 0.89490  0.91600  0.76800  Biso   1.000  H
  C34      1.0000 0.96900  0.95230  0.70120  Biso   1.000  C
  H14      1.0000 0.99550  0.84790  0.73440  Biso   1.000  H
  C35      1.0000 0.06100  0.53480  0.77130  Biso   1.000  C
  H15      1.0000 0.02090  0.62110  0.74350  Biso   1.000  H
  C36      1.0000 0.05690  0.48000  0.83910  Biso   1.000  C
  H16      1.0000 0.01160  0.53490  0.86290  Biso   1.000  H
  N9       1.0000 0.66580  0.96570  0.85570  Biso   1.000  N
  H17      1.0000 0.65320  0.07750  0.82920  Biso   1.000  H
  H18      1.0000 0.68780  0.86170  0.89340  Biso   1.000  H
  N10      1.0000 0.88470  0.95100  0.10620  Biso   1.000  N
  H19      1.0000 0.84970  0.84880  0.08530  Biso   1.000  H
  H20      1.0000 0.91400  0.06620  0.11530  Biso   1.000  H
  N11      1.0000 0.93760  0.00610  0.69650  Biso   1.000  N
  H21      1.0000 0.88940  0.03090  0.71680  Biso   1.000  H
  H22      1.0000 0.98860  0.96180  0.68460  Biso   1.000  H
  H23      1.0000 0.07400  0.53520  0.74760  Biso   1.000  H
  N12      1.0000 0.07480  0.47900  0.80590  Biso   1.000  N
  H24      1.0000 0.06590  0.44150  0.86330  Biso   1.000  H
  Zn2      1.0000 0.62450  0.90250  0.80680  Biso   1.000  Zn
  Zn3      1.0000 0.92497  0.88302  0.15266  Biso   1.000  Zn
  Zn4      1.0000 0.93090  0.09820  0.64740  Biso   1.000  Zn
  N13      1.0000 0.88680  0.03710  0.60110  Biso   1.000  N
  I3       1.0000 0.89713  0.23060  0.67360  Biso   1.000  I
  I4       1.0000 0.99219  0.11250  0.61700  Biso   1.000  I
  I5       1.0000 0.14720  0.41920  0.73800  Biso   1.000  I
  I6       1.0000 0.10840  0.26040  0.84080  Biso   1.000  I
  C37      1.0000 0.89210  0.95370  0.59350  Biso   1.000  C
  C38      1.0000 0.85480  0.07410  0.57680  Biso   1.000  C
  C39      1.0000 0.86900  0.90380  0.56100  Biso   1.000  C
  H25      1.0000 0.91400  0.92490  0.61200  Biso   1.000  H
  C40      1.0000 0.82930  0.03090  0.54420  Biso   1.000  C
  H26      1.0000 0.84930  0.13420  0.58240  Biso   1.000  H
  H27      1.0000 0.87480  0.84370  0.55590  Biso   1.000  H
  C41      1.0000 0.83570  0.94810  0.53560  Biso   1.000  C
  H28      1.0000 0.80680  0.06080  0.52760  Biso   1.000  H
  C42      1.0000 0.80830  0.89470  0.49960  Biso   1.000  C
  N14      1.0000 0.81810  0.80820  0.49660  Biso   1.000  N
  N15      1.0000 0.77950  0.93780  0.47550  Biso   1.000  N
  C43      1.0000 0.79110  0.76240  0.46700  Biso   1.000  C
  C44      1.0000 0.75650  0.88880  0.44250  Biso   1.000  C
  N16      1.0000 0.76190  0.80280  0.43930  Biso   1.000  N
  C45      1.0000 0.79520  0.66890  0.46570  Biso   1.000  C
  C46      1.0000 0.72390  0.93950  0.41340  Biso   1.000  C
  C47      1.0000 0.76850  0.62060  0.43410  Biso   1.000  C
  C48      1.0000 0.82300  0.62560  0.49510  Biso   1.000  C
  C49      1.0000 0.69630  0.89280  0.38150  Biso   1.000  C
  C50      1.0000 0.71970  0.02580  0.41780  Biso   1.000  C
  H29      1.0000 0.74760  0.64570  0.41270  Biso   1.000  H
  C51      1.0000 0.77770  0.52330  0.43900  Biso   1.000  C
  C52      1.0000 0.82670  0.53600  0.49400  Biso   1.000  C
  H30      1.0000 0.84060  0.65850  0.51720  Biso   1.000  H
  C53      1.0000 0.66790  0.93670  0.35340  Biso   1.000  C
  H31      1.0000 0.69780  0.83010  0.38000  Biso   1.000  H
  C54      1.0000 0.68710  0.07060  0.38900  Biso   1.000  C
  H32      1.0000 0.73780  0.05800  0.43950  Biso   1.000  H
  N17      1.0000 0.80350  0.48260  0.46510  Biso   1.000  N
  H33      1.0000 0.76060  0.48670  0.41830  Biso   1.000  H
  H34      1.0000 0.84720  0.50970  0.51540  Biso   1.000  H
  N18      1.0000 0.66230  0.02730  0.35810  Biso   1.000  N
  H35      1.0000 0.65140  0.90560  0.32990  Biso   1.000  H
  H36      1.0000 0.68350  0.13240  0.39260  Biso   1.000  H
  Zn5      1.0000 0.80480  0.34940  0.45760  Biso   1.000  Zn
  Zn6      1.0000 0.61850  0.09480  0.31580  Biso   1.000  Zn
  I7       1.0000 0.60680  0.23950  0.35224  Biso   1.000  I
  N19      1.0000 0.57350  0.01210  0.30820  Biso   1.000  N
  I8       1.0000 0.63992  0.08710  0.24424  Biso   1.000  I
  C55      1.0000 0.55310  0.00700  0.34480  Biso   1.000  C
  C56      1.0000 0.56120  0.95920  0.27450  Biso   1.000  C
  H37      1.0000 0.56030  0.04860  0.36810  Biso   1.000  H
  C57      1.0000 0.52560  0.94900  0.34690  Biso   1.000  C
  C58      1.0000 0.52860  0.89820  0.27520  Biso   1.000  C
  H38      1.0000 0.57330  0.96070  0.25000  Biso   1.000  H
  C59      1.0000 0.51130  0.89280  0.30930  Biso   1.000  C
  H39      1.0000 0.51540  0.94310  0.37260  Biso   1.000  H
  H40      1.0000 0.51940  0.86100  0.25050  Biso   1.000  H
  C60      1.0000 0.47990  0.83320  0.30780  Biso   1.000  C
  N20      1.0000 0.47500  0.76600  0.27840  Biso   1.000  N
  N21      1.0000 0.45730  0.84640  0.33730  Biso   1.000  N
  C61      1.0000 0.44570  0.70890  0.28200  Biso   1.000  C
  C62      1.0000 0.42560  0.78920  0.33610  Biso   1.000  C
  C63      1.0000 0.44250  0.62940  0.25400  Biso   1.000  C
  N22      1.0000 0.42090  0.71630  0.30890  Biso   1.000  N
  C64      1.0000 0.40060  0.80030  0.36570  Biso   1.000  C
  C65      1.0000 0.41160  0.57120  0.24940  Biso   1.000  C
  C66      1.0000 0.47120  0.61060  0.23130  Biso   1.000  C
  C67      1.0000 0.36640  0.75590  0.35920  Biso   1.000  C
  C68      1.0000 0.41050  0.85400  0.40200  Biso   1.000  C
  C69      1.0000 0.40740  0.49910  0.22200  Biso   1.000  C
  H41      1.0000 0.39210  0.58120  0.26600  Biso   1.000  H
  C70      1.0000 0.46560  0.53630  0.20460  Biso   1.000  C
  H42      1.0000 0.49390  0.64720  0.23370  Biso   1.000  H
  H43      1.0000 0.35970  0.71330  0.33640  Biso   1.000  H
  C71      1.0000 0.34130  0.77300  0.38610  Biso   1.000  C
  H44      1.0000 0.43590  0.88000  0.41050  Biso   1.000  H
  C72      1.0000 0.38120  0.86700  0.42580  Biso   1.000  C
  N23      1.0000 0.43410  0.47980  0.20030  Biso   1.000  N
  H45      1.0000 0.38450  0.46280  0.21880  Biso   1.000  H
  H46      1.0000 0.48500  0.52360  0.18820  Biso   1.000  H
  N24      1.0000 0.34410  0.83200  0.41720  Biso   1.000  N
  H47      1.0000 0.31830  0.73680  0.38160  Biso   1.000  H
  H48      1.0000 0.38800  0.90490  0.45060  Biso   1.000  H
  I9       1.0000 0.39237  0.25654  0.18078  Biso   1.000  I
  I10      1.0000 0.48488  0.36742  0.11887  Biso   1.000  I
  I11      1.0000 0.23971  0.78400  0.42149  Biso   1.000  I
  I12      1.0000 0.34110  0.79720  0.53130  Biso   1.000  I
  Zn7      1.0000 0.80810  0.63790  0.95920  Biso   1.000  Zn
  I13      1.0000 0.85050  0.68730  0.03420  Biso   1.000  I
  I14      1.0000 0.74520  0.71340  0.92680  Biso   1.000  I
  Zn8      1.0000 0.62390  0.89700  0.81340  Biso   1.000  Zn
  I15      1.0000 0.64650  0.91330  0.73840  Biso   1.000  I
  I16      1.0000 0.61130  0.75420  0.84980  Biso   1.000  I
  I17      1.0000 0.38170  0.72600  0.68400  Biso   1.000  I
  I18      1.0000 0.47840  0.64270  0.61970  Biso   1.000  I
  Zn9      1.0000 0.12670  0.59520  0.30450  Biso   1.000  Zn
  I19      1.0000 0.11610  0.72830  0.33660  Biso   1.000  I
  I20      1.0000 0.14870  0.57400  0.23310  Biso   1.000  I
  Zn10     1.0000 0.82740  0.35040  0.47330  Biso   1.000  Zn
  I21      1.0000 0.87460  0.32110  0.54470  Biso   1.000  I
  I22      1.0000 0.76610  0.26210  0.44950  Biso   1.000  I
  Zn11     1.0000 0.42080  0.61820  0.65110  Biso   1.000  Zn
  I23      1.0000 0.36480  0.16990  0.04550  Biso   1.000  I
  Zn12     1.0000 0.32230  0.14190  0.96960  Biso   1.000  Zn
  N25      1.0000 0.30630  0.00130  0.96510  Biso   1.000  N
  I24      1.0000 0.25700  0.22020  0.93870  Biso   1.000  I
  N26      1.0000 0.35370  0.15730  0.92270  Biso   1.000  N
  C73      1.0000 0.33440  0.95290  0.99430  Biso   1.000  C
  C74      1.0000 0.27600  0.96670  0.93840  Biso   1.000  C
  C75      1.0000 0.34160  0.20780  0.88660  Biso   1.000  C
  C76      1.0000 0.39120  0.12040  0.93020  Biso   1.000  C
  H49      1.0000 0.35630  0.98080  0.01330  Biso   1.000  H
  C77      1.0000 0.32910  0.86300  0.99450  Biso   1.000  C
  C78      1.0000 0.26990  0.87650  0.93890  Biso   1.000  C
  H50      1.0000 0.25810  0.00340  0.91850  Biso   1.000  H
  C79      1.0000 0.36670  0.22630  0.85710  Biso   1.000  C
  H51      1.0000 0.31560  0.23190  0.88060  Biso   1.000  H
  C80      1.0000 0.41720  0.13760  0.90370  Biso   1.000  C
  H52      1.0000 0.39920  0.08180  0.95450  Biso   1.000  H
  H53      1.0000 0.34810  0.82690  0.01340  Biso   1.000  H
  C81      1.0000 0.29610  0.82350  0.96720  Biso   1.000  C
  H54      1.0000 0.24750  0.85100  0.91970  Biso   1.000  H
  H55      1.0000 0.35750  0.26150  0.83160  Biso   1.000  H
  C82      1.0000 0.40440  0.19230  0.86600  Biso   1.000  C
  H56      1.0000 0.44320  0.11350  0.91040  Biso   1.000  H
  C83      1.0000 0.28990  0.72350  0.96860  Biso   1.000  C
  C84      1.0000 0.43220  0.20600  0.83580  Biso   1.000  C
  N27      1.0000 0.26010  0.69010  0.94020  Biso   1.000  N
  N28      1.0000 0.31600  0.68060  0.00160  Biso   1.000  N
  N29      1.0000 0.42350  0.27520  0.80930  Biso   1.000  N
  N30      1.0000 0.45900  0.14640  0.83770  Biso   1.000  N
  C85      1.0000 0.25590  0.59970  0.94700  Biso   1.000  C
  C86      1.0000 0.30950  0.59510  0.00360  Biso   1.000  C
  C87      1.0000 0.44810  0.28360  0.78220  Biso   1.000  C
  C88      1.0000 0.47960  0.15820  0.80800  Biso   1.000  C
  N31      1.0000 0.27920  0.55070  0.97680  Biso   1.000  N
  C89      1.0000 0.22580  0.55600  0.91530  Biso   1.000  C
  C90      1.0000 0.33430  0.54660  0.03850  Biso   1.000  C
  C91      1.0000 0.44430  0.36410  0.75370  Biso   1.000  C
  N32      1.0000 0.47610  0.22660  0.77860  Biso   1.000  N
  C92      1.0000 0.51280  0.09510  0.80510  Biso   1.000  C
  C93      1.0000 0.19970  0.60080  0.88100  Biso   1.000  C
  C94      1.0000 0.21970  0.46540  0.91790  Biso   1.000  C
  C95      1.0000 0.32840  0.45550  0.04470  Biso   1.000  C
  C96      1.0000 0.36480  0.58450  0.06920  Biso   1.000  C
  C97      1.0000 0.41390  0.42230  0.75040  Biso   1.000  C
  C98      1.0000 0.47250  0.38390  0.73020  Biso   1.000  C
  C99      1.0000 0.53080  0.08760  0.76940  Biso   1.000  C
  C100     1.0000 0.52490  0.03700  0.83930  Biso   1.000  C
  C101     1.0000 0.17060  0.54780  0.85260  Biso   1.000  C
  H57      1.0000 0.20140  0.66300  0.87690  Biso   1.000  H
  H58      1.0000 0.23650  0.43220  0.94040  Biso   1.000  H
  C102     1.0000 0.19100  0.42360  0.88970  Biso   1.000  C
  C103     1.0000 0.35430  0.40960  0.08030  Biso   1.000  C
  H59      1.0000 0.30750  0.42470  0.02570  Biso   1.000  H
  H60      1.0000 0.36740  0.64720  0.06920  Biso   1.000  H
  C104     1.0000 0.39090  0.53780  0.09900  Biso   1.000  C
  C105     1.0000 0.41140  0.49180  0.72030  Biso   1.000  C
  H61      1.0000 0.39490  0.41600  0.76800  Biso   1.000  H
  C106     1.0000 0.46900  0.45230  0.70120  Biso   1.000  C
  H62      1.0000 0.49550  0.34790  0.73440  Biso   1.000  H
  C107     1.0000 0.56100  0.03480  0.77130  Biso   1.000  C
  H63      1.0000 0.52090  0.12110  0.74350  Biso   1.000  H
  C108     1.0000 0.55690  0.98000  0.83910  Biso   1.000  C
  H64      1.0000 0.51160  0.03490  0.86290  Biso   1.000  H
  N33      1.0000 0.16580  0.46570  0.85570  Biso   1.000  N
  H65      1.0000 0.15320  0.57750  0.82920  Biso   1.000  H
  H66      1.0000 0.18780  0.36170  0.89340  Biso   1.000  H
  N34      1.0000 0.38470  0.45100  0.10620  Biso   1.000  N
  H67      1.0000 0.34970  0.34880  0.08530  Biso   1.000  H
  H68      1.0000 0.41400  0.56620  0.11530  Biso   1.000  H
  N35      1.0000 0.43760  0.50610  0.69650  Biso   1.000  N
  H69      1.0000 0.38940  0.53090  0.71680  Biso   1.000  H
  H70      1.0000 0.48860  0.46180  0.68460  Biso   1.000  H
  H71      1.0000 0.57400  0.03520  0.74760  Biso   1.000  H
  N36      1.0000 0.57480  0.97900  0.80590  Biso   1.000  N
  H72      1.0000 0.56590  0.94150  0.86330  Biso   1.000  H
  Zn13     1.0000 0.12450  0.40250  0.80680  Biso   1.000  Zn
  Zn14     1.0000 0.42497  0.38302  0.15266  Biso   1.000  Zn
  Zn15     1.0000 0.43090  0.59820  0.64740  Biso   1.000  Zn
  N37      1.0000 0.38680  0.53710  0.60110  Biso   1.000  N
  I25      1.0000 0.39713  0.73060  0.67360  Biso   1.000  I
  I26      1.0000 0.49219  0.61250  0.61700  Biso   1.000  I
  I27      1.0000 0.64720  0.91920  0.73800  Biso   1.000  I
  I28      1.0000 0.60840  0.76040  0.84080  Biso   1.000  I
  C109     1.0000 0.39210  0.45370  0.59350  Biso   1.000  C
  C110     1.0000 0.35480  0.57410  0.57680  Biso   1.000  C
  C111     1.0000 0.36900  0.40380  0.56100  Biso   1.000  C
  H73      1.0000 0.41400  0.42490  0.61200  Biso   1.000  H
  C112     1.0000 0.32930  0.53090  0.54420  Biso   1.000  C
  H74      1.0000 0.34930  0.63420  0.58240  Biso   1.000  H
  H75      1.0000 0.37480  0.34370  0.55590  Biso   1.000  H
  C113     1.0000 0.33570  0.44810  0.53560  Biso   1.000  C
  H76      1.0000 0.30680  0.56080  0.52760  Biso   1.000  H
  C114     1.0000 0.30830  0.39470  0.49960  Biso   1.000  C
  N38      1.0000 0.31810  0.30820  0.49660  Biso   1.000  N
  N39      1.0000 0.27950  0.43780  0.47550  Biso   1.000  N
  C115     1.0000 0.29110  0.26240  0.46700  Biso   1.000  C
  C116     1.0000 0.25650  0.38880  0.44250  Biso   1.000  C
  N40      1.0000 0.26190  0.30280  0.43930  Biso   1.000  N
  C117     1.0000 0.29520  0.16890  0.46570  Biso   1.000  C
  C118     1.0000 0.22390  0.43950  0.41340  Biso   1.000  C
  C119     1.0000 0.26850  0.12060  0.43410  Biso   1.000  C
  C120     1.0000 0.32300  0.12560  0.49510  Biso   1.000  C
  C121     1.0000 0.19630  0.39280  0.38150  Biso   1.000  C
  C122     1.0000 0.21970  0.52580  0.41780  Biso   1.000  C
  H77      1.0000 0.24760  0.14570  0.41270  Biso   1.000  H
  C123     1.0000 0.27770  0.02330  0.43900  Biso   1.000  C
  C124     1.0000 0.32670  0.03600  0.49400  Biso   1.000  C
  H78      1.0000 0.34060  0.15850  0.51720  Biso   1.000  H
  C125     1.0000 0.16790  0.43670  0.35340  Biso   1.000  C
  H79      1.0000 0.19780  0.33010  0.38000  Biso   1.000  H
  C126     1.0000 0.18710  0.57060  0.38900  Biso   1.000  C
  H80      1.0000 0.23780  0.55800  0.43950  Biso   1.000  H
  N41      1.0000 0.30350  0.98260  0.46510  Biso   1.000  N
  H81      1.0000 0.26060  0.98670  0.41830  Biso   1.000  H
  H82      1.0000 0.34720  0.00970  0.51540  Biso   1.000  H
  N42      1.0000 0.16230  0.52730  0.35810  Biso   1.000  N
  H83      1.0000 0.15140  0.40560  0.32990  Biso   1.000  H
  H84      1.0000 0.18350  0.63240  0.39260  Biso   1.000  H
  Zn16     1.0000 0.30480  0.84940  0.45760  Biso   1.000  Zn
  Zn17     1.0000 0.11850  0.59480  0.31580  Biso   1.000  Zn
  I29      1.0000 0.10680  0.73950  0.35224  Biso   1.000  I
  N43      1.0000 0.07350  0.51210  0.30820  Biso   1.000  N
  I30      1.0000 0.13992  0.58710  0.24424  Biso   1.000  I
  C127     1.0000 0.05310  0.50700  0.34480  Biso   1.000  C
  C128     1.0000 0.06120  0.45920  0.27450  Biso   1.000  C
  H85      1.0000 0.06030  0.54860  0.36810  Biso   1.000  H
  C129     1.0000 0.02560  0.44900  0.34690  Biso   1.000  C
  C130     1.0000 0.02860  0.39820  0.27520  Biso   1.000  C
  H86      1.0000 0.07330  0.46070  0.25000  Biso   1.000  H
  C131     1.0000 0.01130  0.39280  0.30930  Biso   1.000  C
  H87      1.0000 0.01540  0.44310  0.37260  Biso   1.000  H
  H88      1.0000 0.01940  0.36100  0.25050  Biso   1.000  H
  C132     1.0000 0.97990  0.33320  0.30780  Biso   1.000  C
  N44      1.0000 0.97500  0.26600  0.27840  Biso   1.000  N
  N45      1.0000 0.95730  0.34640  0.33730  Biso   1.000  N
  C133     1.0000 0.94570  0.20890  0.28200  Biso   1.000  C
  C134     1.0000 0.92560  0.28920  0.33610  Biso   1.000  C
  C135     1.0000 0.94250  0.12940  0.25400  Biso   1.000  C
  N46      1.0000 0.92090  0.21630  0.30890  Biso   1.000  N
  C136     1.0000 0.90060  0.30030  0.36570  Biso   1.000  C
  C137     1.0000 0.91160  0.07120  0.24940  Biso   1.000  C
  C138     1.0000 0.97120  0.11060  0.23130  Biso   1.000  C
  C139     1.0000 0.86640  0.25590  0.35920  Biso   1.000  C
  C140     1.0000 0.91050  0.35400  0.40200  Biso   1.000  C
  C141     1.0000 0.90740  0.99910  0.22200  Biso   1.000  C
  H89      1.0000 0.89210  0.08120  0.26600  Biso   1.000  H
  C142     1.0000 0.96560  0.03630  0.20460  Biso   1.000  C
  H90      1.0000 0.99390  0.14720  0.23370  Biso   1.000  H
  H91      1.0000 0.85970  0.21330  0.33640  Biso   1.000  H
  C143     1.0000 0.84130  0.27300  0.38610  Biso   1.000  C
  H92      1.0000 0.93590  0.38000  0.41050  Biso   1.000  H
  C144     1.0000 0.88120  0.36700  0.42580  Biso   1.000  C
  N47      1.0000 0.93410  0.97980  0.20030  Biso   1.000  N
  H93      1.0000 0.88450  0.96280  0.21880  Biso   1.000  H
  H94      1.0000 0.98500  0.02360  0.18820  Biso   1.000  H
  N48      1.0000 0.84410  0.33200  0.41720  Biso   1.000  N
  H95      1.0000 0.81830  0.23680  0.38160  Biso   1.000  H
  H96      1.0000 0.88800  0.40490  0.45060  Biso   1.000  H
  I31      1.0000 0.89237  0.75654  0.18078  Biso   1.000  I
  I32      1.0000 0.98488  0.86742  0.11887  Biso   1.000  I
  I33      1.0000 0.73971  0.28400  0.42149  Biso   1.000  I
  I34      1.0000 0.84110  0.29720  0.53130  Biso   1.000  I
  Zn18     1.0000 0.30810  0.13790  0.95920  Biso   1.000  Zn
  I35      1.0000 0.35050  0.18730  0.03420  Biso   1.000  I
  I36      1.0000 0.24520  0.21340  0.92680  Biso   1.000  I
  Zn19     1.0000 0.12390  0.39700  0.81340  Biso   1.000  Zn
  I37      1.0000 0.14650  0.41330  0.73840  Biso   1.000  I
  I38      1.0000 0.11130  0.25420  0.84980  Biso   1.000  I
  I39      1.0000 0.88170  0.22600  0.68400  Biso   1.000  I
  I40      1.0000 0.97840  0.14270  0.61970  Biso   1.000  I
  Zn20     1.0000 0.62670  0.09520  0.30450  Biso   1.000  Zn
  I41      1.0000 0.61610  0.22830  0.33660  Biso   1.000  I
  I42      1.0000 0.64870  0.07400  0.23310  Biso   1.000  I
  Zn21     1.0000 0.32740  0.85040  0.47330  Biso   1.000  Zn
  I43      1.0000 0.37460  0.82110  0.54470  Biso   1.000  I
  I44      1.0000 0.26610  0.76210  0.44950  Biso   1.000  I
  Zn22     1.0000 0.92080  0.11820  0.65110  Biso   1.000  Zn
  I45      1.0000 0.13520  0.66990  0.95450  Biso   1.000  I
  Zn23     1.0000 0.17770  0.64190  0.03040  Biso   1.000  Zn
  N49      1.0000 0.19370  0.50130  0.03490  Biso   1.000  N
  I46      1.0000 0.24300  0.72020  0.06130  Biso   1.000  I
  N50      1.0000 0.14630  0.65730  0.07730  Biso   1.000  N
  C145     1.0000 0.16560  0.45290  0.00570  Biso   1.000  C
  C146     1.0000 0.22400  0.46670  0.06160  Biso   1.000  C
  C147     1.0000 0.15840  0.70780  0.11340  Biso   1.000  C
  C148     1.0000 0.10880  0.62040  0.06980  Biso   1.000  C
  H97      1.0000 0.14370  0.48080  0.98670  Biso   1.000  H
  C149     1.0000 0.17090  0.36300  0.00550  Biso   1.000  C
  C150     1.0000 0.23010  0.37650  0.06110  Biso   1.000  C
  H98      1.0000 0.24190  0.50340  0.08150  Biso   1.000  H
  C151     1.0000 0.13330  0.72630  0.14290  Biso   1.000  C
  H99      1.0000 0.18440  0.73190  0.11940  Biso   1.000  H
  C152     1.0000 0.08280  0.63760  0.09630  Biso   1.000  C
  H100     1.0000 0.10080  0.58180  0.04550  Biso   1.000  H
  H101     1.0000 0.15190  0.32690  0.98660  Biso   1.000  H
  C153     1.0000 0.20390  0.32350  0.03280  Biso   1.000  C
  H102     1.0000 0.25250  0.35100  0.08030  Biso   1.000  H
  H103     1.0000 0.14250  0.76150  0.16840  Biso   1.000  H
  C154     1.0000 0.09560  0.69230  0.13400  Biso   1.000  C
  H104     1.0000 0.05680  0.61350  0.08960  Biso   1.000  H
  C155     1.0000 0.21010  0.22350  0.03140  Biso   1.000  C
  C156     1.0000 0.06780  0.70600  0.16420  Biso   1.000  C
  N51      1.0000 0.23990  0.19010  0.05980  Biso   1.000  N
  N52      1.0000 0.18400  0.18060  0.99840  Biso   1.000  N
  N53      1.0000 0.07650  0.77520  0.19070  Biso   1.000  N
  N54      1.0000 0.04100  0.64640  0.16230  Biso   1.000  N
  C157     1.0000 0.24410  0.09970  0.05300  Biso   1.000  C
  C158     1.0000 0.19050  0.09510  0.99640  Biso   1.000  C
  C159     1.0000 0.05190  0.78360  0.21780  Biso   1.000  C
  C160     1.0000 0.02040  0.65820  0.19200  Biso   1.000  C
  N55      1.0000 0.22080  0.05070  0.02320  Biso   1.000  N
  C161     1.0000 0.27420  0.05600  0.08470  Biso   1.000  C
  C162     1.0000 0.16570  0.04660  0.96150  Biso   1.000  C
  C163     1.0000 0.05570  0.86410  0.24630  Biso   1.000  C
  N56      1.0000 0.02390  0.72660  0.22140  Biso   1.000  N
  C164     1.0000 0.98720  0.59510  0.19490  Biso   1.000  C
  C165     1.0000 0.30030  0.10080  0.11900  Biso   1.000  C
  C166     1.0000 0.28030  0.96540  0.08210  Biso   1.000  C
  C167     1.0000 0.17160  0.95550  0.95530  Biso   1.000  C
  C168     1.0000 0.13520  0.08450  0.93080  Biso   1.000  C
  C169     1.0000 0.08610  0.92230  0.24960  Biso   1.000  C
  C170     1.0000 0.02750  0.88390  0.26980  Biso   1.000  C
  C171     1.0000 0.96920  0.58760  0.23060  Biso   1.000  C
  C172     1.0000 0.97510  0.53700  0.16070  Biso   1.000  C
  C173     1.0000 0.32940  0.04780  0.14740  Biso   1.000  C
  H105     1.0000 0.29860  0.16300  0.12310  Biso   1.000  H
  H106     1.0000 0.26350  0.93220  0.05960  Biso   1.000  H
  C174     1.0000 0.30900  0.92360  0.11030  Biso   1.000  C
  C175     1.0000 0.14570  0.90960  0.91970  Biso   1.000  C
  H107     1.0000 0.19250  0.92470  0.97430  Biso   1.000  H
  H108     1.0000 0.13260  0.14720  0.93080  Biso   1.000  H
  C176     1.0000 0.10910  0.03780  0.90100  Biso   1.000  C
  C177     1.0000 0.08860  0.99180  0.27970  Biso   1.000  C
  H109     1.0000 0.10510  0.91600  0.23200  Biso   1.000  H
  C178     1.0000 0.03100  0.95230  0.29880  Biso   1.000  C
  H110     1.0000 0.00450  0.84790  0.26560  Biso   1.000  H
  C179     1.0000 0.93900  0.53480  0.22870  Biso   1.000  C
  H111     1.0000 0.97910  0.62110  0.25650  Biso   1.000  H
  C180     1.0000 0.94310  0.48000  0.16090  Biso   1.000  C
  H112     1.0000 0.98840  0.53490  0.13710  Biso   1.000  H
  N57      1.0000 0.33420  0.96570  0.14430  Biso   1.000  N
  H113     1.0000 0.34680  0.07750  0.17080  Biso   1.000  H
  H114     1.0000 0.31220  0.86170  0.10660  Biso   1.000  H
  N58      1.0000 0.11530  0.95100  0.89380  Biso   1.000  N
  H115     1.0000 0.15030  0.84880  0.91470  Biso   1.000  H
  H116     1.0000 0.08600  0.06620  0.88470  Biso   1.000  H
  N59      1.0000 0.06240  0.00610  0.30350  Biso   1.000  N
  H117     1.0000 0.11060  0.03090  0.28320  Biso   1.000  H
  H118     1.0000 0.01140  0.96180  0.31540  Biso   1.000  H
  H119     1.0000 0.92600  0.53520  0.25240  Biso   1.000  H
  N60      1.0000 0.92520  0.47900  0.19410  Biso   1.000  N
  H120     1.0000 0.93410  0.44150  0.13670  Biso   1.000  H
  Zn24     1.0000 0.37550  0.90250  0.19320  Biso   1.000  Zn
  Zn25     1.0000 0.07503  0.88302  0.84734  Biso   1.000  Zn
  Zn26     1.0000 0.06910  0.09820  0.35260  Biso   1.000  Zn
  N61      1.0000 0.11320  0.03710  0.39890  Biso   1.000  N
  I47      1.0000 0.10287  0.23060  0.32640  Biso   1.000  I
  I48      1.0000 0.00781  0.11250  0.38300  Biso   1.000  I
  I49      1.0000 0.85280  0.41920  0.26200  Biso   1.000  I
  I50      1.0000 0.89160  0.26040  0.15920  Biso   1.000  I
  C181     1.0000 0.10790  0.95370  0.40650  Biso   1.000  C
  C182     1.0000 0.14520  0.07410  0.42320  Biso   1.000  C
  C183     1.0000 0.13100  0.90380  0.43900  Biso   1.000  C
  H121     1.0000 0.08600  0.92490  0.38800  Biso   1.000  H
  C184     1.0000 0.17070  0.03090  0.45580  Biso   1.000  C
  H122     1.0000 0.15070  0.13420  0.41760  Biso   1.000  H
  H123     1.0000 0.12520  0.84370  0.44410  Biso   1.000  H
  C185     1.0000 0.16430  0.94810  0.46440  Biso   1.000  C
  H124     1.0000 0.19320  0.06080  0.47240  Biso   1.000  H
  C186     1.0000 0.19170  0.89470  0.50040  Biso   1.000  C
  N62      1.0000 0.18190  0.80820  0.50340  Biso   1.000  N
  N63      1.0000 0.22050  0.93780  0.52450  Biso   1.000  N
  C187     1.0000 0.20890  0.76240  0.53300  Biso   1.000  C
  C188     1.0000 0.24350  0.88880  0.55750  Biso   1.000  C
  N64      1.0000 0.23810  0.80280  0.56070  Biso   1.000  N
  C189     1.0000 0.20480  0.66890  0.53430  Biso   1.000  C
  C190     1.0000 0.27610  0.93950  0.58660  Biso   1.000  C
  C191     1.0000 0.23150  0.62060  0.56590  Biso   1.000  C
  C192     1.0000 0.17700  0.62560  0.50490  Biso   1.000  C
  C193     1.0000 0.30370  0.89280  0.61850  Biso   1.000  C
  C194     1.0000 0.28030  0.02580  0.58220  Biso   1.000  C
  H125     1.0000 0.25240  0.64570  0.58730  Biso   1.000  H
  C195     1.0000 0.22230  0.52330  0.56100  Biso   1.000  C
  C196     1.0000 0.17330  0.53600  0.50600  Biso   1.000  C
  H126     1.0000 0.15940  0.65850  0.48280  Biso   1.000  H
  C197     1.0000 0.33210  0.93670  0.64660  Biso   1.000  C
  H127     1.0000 0.30220  0.83010  0.62000  Biso   1.000  H
  C198     1.0000 0.31290  0.07060  0.61100  Biso   1.000  C
  H128     1.0000 0.26220  0.05800  0.56050  Biso   1.000  H
  N65      1.0000 0.19650  0.48260  0.53490  Biso   1.000  N
  H129     1.0000 0.23940  0.48670  0.58170  Biso   1.000  H
  H130     1.0000 0.15280  0.50970  0.48460  Biso   1.000  H
  N66      1.0000 0.33770  0.02730  0.64190  Biso   1.000  N
  H131     1.0000 0.34860  0.90560  0.67010  Biso   1.000  H
  H132     1.0000 0.31650  0.13240  0.60740  Biso   1.000  H
  Zn27     1.0000 0.19520  0.34940  0.54240  Biso   1.000  Zn
  Zn28     1.0000 0.38150  0.09480  0.68420  Biso   1.000  Zn
  I51      1.0000 0.39320  0.23950  0.64776  Biso   1.000  I
  N67      1.0000 0.42650  0.01210  0.69180  Biso   1.000  N
  I52      1.0000 0.36008  0.08710  0.75576  Biso   1.000  I
  C199     1.0000 0.44690  0.00700  0.65520  Biso   1.000  C
  C200     1.0000 0.43880  0.95920  0.72550  Biso   1.000  C
  H133     1.0000 0.43970  0.04860  0.63190  Biso   1.000  H
  C201     1.0000 0.47440  0.94900  0.65310  Biso   1.000  C
  C202     1.0000 0.47140  0.89820  0.72480  Biso   1.000  C
  H134     1.0000 0.42670  0.96070  0.75000  Biso   1.000  H
  C203     1.0000 0.48870  0.89280  0.69070  Biso   1.000  C
  H135     1.0000 0.48460  0.94310  0.62740  Biso   1.000  H
  H136     1.0000 0.48060  0.86100  0.74950  Biso   1.000  H
  C204     1.0000 0.52010  0.83320  0.69220  Biso   1.000  C
  N68      1.0000 0.52500  0.76600  0.72160  Biso   1.000  N
  N69      1.0000 0.54270  0.84640  0.66270  Biso   1.000  N
  C205     1.0000 0.55430  0.70890  0.71800  Biso   1.000  C
  C206     1.0000 0.57440  0.78920  0.66390  Biso   1.000  C
  C207     1.0000 0.55750  0.62940  0.74600  Biso   1.000  C
  N70      1.0000 0.57910  0.71630  0.69110  Biso   1.000  N
  C208     1.0000 0.59940  0.80030  0.63430  Biso   1.000  C
  C209     1.0000 0.58840  0.57120  0.75060  Biso   1.000  C
  C210     1.0000 0.52880  0.61060  0.76870  Biso   1.000  C
  C211     1.0000 0.63360  0.75590  0.64080  Biso   1.000  C
  C212     1.0000 0.58950  0.85400  0.59800  Biso   1.000  C
  C213     1.0000 0.59260  0.49910  0.77800  Biso   1.000  C
  H137     1.0000 0.60790  0.58120  0.73400  Biso   1.000  H
  C214     1.0000 0.53440  0.53630  0.79540  Biso   1.000  C
  H138     1.0000 0.50610  0.64720  0.76630  Biso   1.000  H
  H139     1.0000 0.64030  0.71330  0.66360  Biso   1.000  H
  C215     1.0000 0.65870  0.77300  0.61390  Biso   1.000  C
  H140     1.0000 0.56410  0.88000  0.58950  Biso   1.000  H
  C216     1.0000 0.61880  0.86700  0.57420  Biso   1.000  C
  N71      1.0000 0.56590  0.47980  0.79970  Biso   1.000  N
  H141     1.0000 0.61550  0.46280  0.78120  Biso   1.000  H
  H142     1.0000 0.51500  0.52360  0.81180  Biso   1.000  H
  N72      1.0000 0.65590  0.83200  0.58280  Biso   1.000  N
  H143     1.0000 0.68170  0.73680  0.61840  Biso   1.000  H
  H144     1.0000 0.61200  0.90490  0.54940  Biso   1.000  H
  I53      1.0000 0.60763  0.25654  0.81922  Biso   1.000  I
  I54      1.0000 0.51512  0.36742  0.88113  Biso   1.000  I
  I55      1.0000 0.76029  0.78400  0.57851  Biso   1.000  I
  I56      1.0000 0.65890  0.79720  0.46870  Biso   1.000  I
  Zn29     1.0000 0.19190  0.63790  0.04080  Biso   1.000  Zn
  I57      1.0000 0.14950  0.68730  0.96580  Biso   1.000  I
  I58      1.0000 0.25480  0.71340  0.07320  Biso   1.000  I
  Zn30     1.0000 0.37610  0.89700  0.18660  Biso   1.000  Zn
  I59      1.0000 0.35350  0.91330  0.26160  Biso   1.000  I
  I60      1.0000 0.38870  0.75420  0.15020  Biso   1.000  I
  I61      1.0000 0.61830  0.72600  0.31600  Biso   1.000  I
  I62      1.0000 0.52160  0.64270  0.38030  Biso   1.000  I
  Zn31     1.0000 0.87330  0.59520  0.69550  Biso   1.000  Zn
  I63      1.0000 0.88390  0.72830  0.66340  Biso   1.000  I
  I64      1.0000 0.85130  0.57400  0.76690  Biso   1.000  I
  Zn32     1.0000 0.17260  0.35040  0.52670  Biso   1.000  Zn
  I65      1.0000 0.12540  0.32110  0.45530  Biso   1.000  I
  I66      1.0000 0.23390  0.26210  0.55050  Biso   1.000  I
  Zn33     1.0000 0.57920  0.61820  0.34890  Biso   1.000  Zn
  I67      1.0000 0.63520  0.16990  0.95450  Biso   1.000  I
  Zn34     1.0000 0.67770  0.14190  0.03040  Biso   1.000  Zn
  N73      1.0000 0.69370  0.00130  0.03490  Biso   1.000  N
  I68      1.0000 0.74300  0.22020  0.06130  Biso   1.000  I
  N74      1.0000 0.64630  0.15730  0.07730  Biso   1.000  N
  C217     1.0000 0.66560  0.95290  0.00570  Biso   1.000  C
  C218     1.0000 0.72400  0.96670  0.06160  Biso   1.000  C
  C219     1.0000 0.65840  0.20780  0.11340  Biso   1.000  C
  C220     1.0000 0.60880  0.12040  0.06980  Biso   1.000  C
  H145     1.0000 0.64370  0.98080  0.98670  Biso   1.000  H
  C221     1.0000 0.67090  0.86300  0.00550  Biso   1.000  C
  C222     1.0000 0.73010  0.87650  0.06110  Biso   1.000  C
  H146     1.0000 0.74190  0.00340  0.08150  Biso   1.000  H
  C223     1.0000 0.63330  0.22630  0.14290  Biso   1.000  C
  H147     1.0000 0.68440  0.23190  0.11940  Biso   1.000  H
  C224     1.0000 0.58280  0.13760  0.09630  Biso   1.000  C
  H148     1.0000 0.60080  0.08180  0.04550  Biso   1.000  H
  H149     1.0000 0.65190  0.82690  0.98660  Biso   1.000  H
  C225     1.0000 0.70390  0.82350  0.03280  Biso   1.000  C
  H150     1.0000 0.75250  0.85100  0.08030  Biso   1.000  H
  H151     1.0000 0.64250  0.26150  0.16840  Biso   1.000  H
  C226     1.0000 0.59560  0.19230  0.13400  Biso   1.000  C
  H152     1.0000 0.55680  0.11350  0.08960  Biso   1.000  H
  C227     1.0000 0.71010  0.72350  0.03140  Biso   1.000  C
  C228     1.0000 0.56780  0.20600  0.16420  Biso   1.000  C
  N75      1.0000 0.73990  0.69010  0.05980  Biso   1.000  N
  N76      1.0000 0.68400  0.68060  0.99840  Biso   1.000  N
  N77      1.0000 0.57650  0.27520  0.19070  Biso   1.000  N
  N78      1.0000 0.54100  0.14640  0.16230  Biso   1.000  N
  C229     1.0000 0.74410  0.59970  0.05300  Biso   1.000  C
  C230     1.0000 0.69050  0.59510  0.99640  Biso   1.000  C
  C231     1.0000 0.55190  0.28360  0.21780  Biso   1.000  C
  C232     1.0000 0.52040  0.15820  0.19200  Biso   1.000  C
  N79      1.0000 0.72080  0.55070  0.02320  Biso   1.000  N
  C233     1.0000 0.77420  0.55600  0.08470  Biso   1.000  C
  C234     1.0000 0.66570  0.54660  0.96150  Biso   1.000  C
  C235     1.0000 0.55570  0.36410  0.24630  Biso   1.000  C
  N80      1.0000 0.52390  0.22660  0.22140  Biso   1.000  N
  C236     1.0000 0.48720  0.09510  0.19490  Biso   1.000  C
  C237     1.0000 0.80030  0.60080  0.11900  Biso   1.000  C
  C238     1.0000 0.78030  0.46540  0.08210  Biso   1.000  C
  C239     1.0000 0.67160  0.45550  0.95530  Biso   1.000  C
  C240     1.0000 0.63520  0.58450  0.93080  Biso   1.000  C
  C241     1.0000 0.58610  0.42230  0.24960  Biso   1.000  C
  C242     1.0000 0.52750  0.38390  0.26980  Biso   1.000  C
  C243     1.0000 0.46920  0.08760  0.23060  Biso   1.000  C
  C244     1.0000 0.47510  0.03700  0.16070  Biso   1.000  C
  C245     1.0000 0.82940  0.54780  0.14740  Biso   1.000  C
  H153     1.0000 0.79860  0.66300  0.12310  Biso   1.000  H
  H154     1.0000 0.76350  0.43220  0.05960  Biso   1.000  H
  C246     1.0000 0.80900  0.42360  0.11030  Biso   1.000  C
  C247     1.0000 0.64570  0.40960  0.91970  Biso   1.000  C
  H155     1.0000 0.69250  0.42470  0.97430  Biso   1.000  H
  H156     1.0000 0.63260  0.64720  0.93080  Biso   1.000  H
  C248     1.0000 0.60910  0.53780  0.90100  Biso   1.000  C
  C249     1.0000 0.58860  0.49180  0.27970  Biso   1.000  C
  H157     1.0000 0.60510  0.41600  0.23200  Biso   1.000  H
  C250     1.0000 0.53100  0.45230  0.29880  Biso   1.000  C
  H158     1.0000 0.50450  0.34790  0.26560  Biso   1.000  H
  C251     1.0000 0.43900  0.03480  0.22870  Biso   1.000  C
  H159     1.0000 0.47910  0.12110  0.25650  Biso   1.000  H
  C252     1.0000 0.44310  0.98000  0.16090  Biso   1.000  C
  H160     1.0000 0.48840  0.03490  0.13710  Biso   1.000  H
  N81      1.0000 0.83420  0.46570  0.14430  Biso   1.000  N
  H161     1.0000 0.84680  0.57750  0.17080  Biso   1.000  H
  H162     1.0000 0.81220  0.36170  0.10660  Biso   1.000  H
  N82      1.0000 0.61530  0.45100  0.89380  Biso   1.000  N
  H163     1.0000 0.65030  0.34880  0.91470  Biso   1.000  H
  H164     1.0000 0.58600  0.56620  0.88470  Biso   1.000  H
  N83      1.0000 0.56240  0.50610  0.30350  Biso   1.000  N
  H165     1.0000 0.61060  0.53090  0.28320  Biso   1.000  H
  H166     1.0000 0.51140  0.46180  0.31540  Biso   1.000  H
  H167     1.0000 0.42600  0.03520  0.25240  Biso   1.000  H
  N84      1.0000 0.42520  0.97900  0.19410  Biso   1.000  N
  H168     1.0000 0.43410  0.94150  0.13670  Biso   1.000  H
  Zn35     1.0000 0.87550  0.40250  0.19320  Biso   1.000  Zn
  Zn36     1.0000 0.57503  0.38302  0.84734  Biso   1.000  Zn
  Zn37     1.0000 0.56910  0.59820  0.35260  Biso   1.000  Zn
  N85      1.0000 0.61320  0.53710  0.39890  Biso   1.000  N
  I69      1.0000 0.60287  0.73060  0.32640  Biso   1.000  I
  I70      1.0000 0.50781  0.61250  0.38300  Biso   1.000  I
  I71      1.0000 0.35280  0.91920  0.26200  Biso   1.000  I
  I72      1.0000 0.39160  0.76040  0.15920  Biso   1.000  I
  C253     1.0000 0.60790  0.45370  0.40650  Biso   1.000  C
  C254     1.0000 0.64520  0.57410  0.42320  Biso   1.000  C
  C255     1.0000 0.63100  0.40380  0.43900  Biso   1.000  C
  H169     1.0000 0.58600  0.42490  0.38800  Biso   1.000  H
  C256     1.0000 0.67070  0.53090  0.45580  Biso   1.000  C
  H170     1.0000 0.65070  0.63420  0.41760  Biso   1.000  H
  H171     1.0000 0.62520  0.34370  0.44410  Biso   1.000  H
  C257     1.0000 0.66430  0.44810  0.46440  Biso   1.000  C
  H172     1.0000 0.69320  0.56080  0.47240  Biso   1.000  H
  C258     1.0000 0.69170  0.39470  0.50040  Biso   1.000  C
  N86      1.0000 0.68190  0.30820  0.50340  Biso   1.000  N
  N87      1.0000 0.72050  0.43780  0.52450  Biso   1.000  N
  C259     1.0000 0.70890  0.26240  0.53300  Biso   1.000  C
  C260     1.0000 0.74350  0.38880  0.55750  Biso   1.000  C
  N88      1.0000 0.73810  0.30280  0.56070  Biso   1.000  N
  C261     1.0000 0.70480  0.16890  0.53430  Biso   1.000  C
  C262     1.0000 0.77610  0.43950  0.58660  Biso   1.000  C
  C263     1.0000 0.73150  0.12060  0.56590  Biso   1.000  C
  C264     1.0000 0.67700  0.12560  0.50490  Biso   1.000  C
  C265     1.0000 0.80370  0.39280  0.61850  Biso   1.000  C
  C266     1.0000 0.78030  0.52580  0.58220  Biso   1.000  C
  H173     1.0000 0.75240  0.14570  0.58730  Biso   1.000  H
  C267     1.0000 0.72230  0.02330  0.56100  Biso   1.000  C
  C268     1.0000 0.67330  0.03600  0.50600  Biso   1.000  C
  H174     1.0000 0.65940  0.15850  0.48280  Biso   1.000  H
  C269     1.0000 0.83210  0.43670  0.64660  Biso   1.000  C
  H175     1.0000 0.80220  0.33010  0.62000  Biso   1.000  H
  C270     1.0000 0.81290  0.57060  0.61100  Biso   1.000  C
  H176     1.0000 0.76220  0.55800  0.56050  Biso   1.000  H
  N89      1.0000 0.69650  0.98260  0.53490  Biso   1.000  N
  H177     1.0000 0.73940  0.98670  0.58170  Biso   1.000  H
  H178     1.0000 0.65280  0.00970  0.48460  Biso   1.000  H
  N90      1.0000 0.83770  0.52730  0.64190  Biso   1.000  N
  H179     1.0000 0.84860  0.40560  0.67010  Biso   1.000  H
  H180     1.0000 0.81650  0.63240  0.60740  Biso   1.000  H
  Zn38     1.0000 0.69520  0.84940  0.54240  Biso   1.000  Zn
  Zn39     1.0000 0.88150  0.59480  0.68420  Biso   1.000  Zn
  I73      1.0000 0.89320  0.73950  0.64776  Biso   1.000  I
  N91      1.0000 0.92650  0.51210  0.69180  Biso   1.000  N
  I74      1.0000 0.86008  0.58710  0.75576  Biso   1.000  I
  C271     1.0000 0.94690  0.50700  0.65520  Biso   1.000  C
  C272     1.0000 0.93880  0.45920  0.72550  Biso   1.000  C
  H181     1.0000 0.93970  0.54860  0.63190  Biso   1.000  H
  C273     1.0000 0.97440  0.44900  0.65310  Biso   1.000  C
  C274     1.0000 0.97140  0.39820  0.72480  Biso   1.000  C
  H182     1.0000 0.92670  0.46070  0.75000  Biso   1.000  H
  C275     1.0000 0.98870  0.39280  0.69070  Biso   1.000  C
  H183     1.0000 0.98460  0.44310  0.62740  Biso   1.000  H
  H184     1.0000 0.98060  0.36100  0.74950  Biso   1.000  H
  C276     1.0000 0.02010  0.33320  0.69220  Biso   1.000  C
  N92      1.0000 0.02500  0.26600  0.72160  Biso   1.000  N
  N93      1.0000 0.04270  0.34640  0.66270  Biso   1.000  N
  C277     1.0000 0.05430  0.20890  0.71800  Biso   1.000  C
  C278     1.0000 0.07440  0.28920  0.66390  Biso   1.000  C
  C279     1.0000 0.05750  0.12940  0.74600  Biso   1.000  C
  N94      1.0000 0.07910  0.21630  0.69110  Biso   1.000  N
  C280     1.0000 0.09940  0.30030  0.63430  Biso   1.000  C
  C281     1.0000 0.08840  0.07120  0.75060  Biso   1.000  C
  C282     1.0000 0.02880  0.11060  0.76870  Biso   1.000  C
  C283     1.0000 0.13360  0.25590  0.64080  Biso   1.000  C
  C284     1.0000 0.08950  0.35400  0.59800  Biso   1.000  C
  C285     1.0000 0.09260  0.99910  0.77800  Biso   1.000  C
  H185     1.0000 0.10790  0.08120  0.73400  Biso   1.000  H
  C286     1.0000 0.03440  0.03630  0.79540  Biso   1.000  C
  H186     1.0000 0.00610  0.14720  0.76630  Biso   1.000  H
  H187     1.0000 0.14030  0.21330  0.66360  Biso   1.000  H
  C287     1.0000 0.15870  0.27300  0.61390  Biso   1.000  C
  H188     1.0000 0.06410  0.38000  0.58950  Biso   1.000  H
  C288     1.0000 0.11880  0.36700  0.57420  Biso   1.000  C
  N95      1.0000 0.06590  0.97980  0.79970  Biso   1.000  N
  H189     1.0000 0.11550  0.96280  0.78120  Biso   1.000  H
  H190     1.0000 0.01500  0.02360  0.81180  Biso   1.000  H
  N96      1.0000 0.15590  0.33200  0.58280  Biso   1.000  N
  H191     1.0000 0.18170  0.23680  0.61840  Biso   1.000  H
  H192     1.0000 0.11200  0.40490  0.54940  Biso   1.000  H
  I75      1.0000 0.10763  0.75654  0.81922  Biso   1.000  I
  I76      1.0000 0.01512  0.86742  0.88113  Biso   1.000  I
  I77      1.0000 0.26029  0.28400  0.57851  Biso   1.000  I
  I78      1.0000 0.15890  0.29720  0.46870  Biso   1.000  I
  Zn40     1.0000 0.69190  0.13790  0.04080  Biso   1.000  Zn
  I79      1.0000 0.64950  0.18730  0.96580  Biso   1.000  I
  I80      1.0000 0.75480  0.21340  0.07320  Biso   1.000  I
  Zn41     1.0000 0.87610  0.39700  0.18660  Biso   1.000  Zn
  I81      1.0000 0.85350  0.41330  0.26160  Biso   1.000  I
  I82      1.0000 0.88870  0.25420  0.15020  Biso   1.000  I
  I83      1.0000 0.11830  0.22600  0.31600  Biso   1.000  I
  I84      1.0000 0.02160  0.14270  0.38030  Biso   1.000  I
  Zn42     1.0000 0.37330  0.09520  0.69550  Biso   1.000  Zn
  I85      1.0000 0.38390  0.22830  0.66340  Biso   1.000  I
  I86      1.0000 0.35130  0.07400  0.76690  Biso   1.000  I
  Zn43     1.0000 0.67260  0.85040  0.52670  Biso   1.000  Zn
  I87      1.0000 0.62540  0.82110  0.45530  Biso   1.000  I
  I88      1.0000 0.73390  0.76210  0.55050  Biso   1.000  I
  Zn44     1.0000 0.07920  0.11820  0.34890  Biso   1.000  Zn
