data_image0
_cell_length_a       34.4391
_cell_length_b       15.0959
_cell_length_c       29.9556
_cell_angle_alpha    90
_cell_angle_beta     101.454
_cell_angle_gamma    90

_symmetry_space_group_name_H-M    "P 1"
_symmetry_int_tables_number       1

loop_
  _symmetry_equiv_pos_as_xyz
  'x, y, z'

loop_
  _atom_site_label
  _atom_site_occupancy
  _atom_site_fract_x
  _atom_site_fract_y
  _atom_site_fract_z
  _atom_site_thermal_displace_type
  _atom_site_B_iso_or_equiv
  _atom_site_type_symbol
  Zn1      1.0000 0.57772  0.26620  0.84554  Biso   1.000  Zn
  Zn2      1.0000 0.36566  0.97270  0.70934  Biso   1.000  Zn
  Zn3      1.0000 0.08164  0.00737  0.34312  Biso   1.000  Zn
  Zn4      1.0000 0.86840  0.29290  0.20486  Biso   1.000  Zn
  Zn5      1.0000 0.17805  0.52810  0.02680  Biso   1.000  Zn
  Zn6      1.0000 0.16970  0.24520  0.51820  Biso   1.000  Zn
  I1       1.0000 0.61283  0.15120  0.80330  Biso   1.000  I
  I2       1.0000 0.52420  0.23770  0.88990  Biso   1.000  I
  I3       1.0000 0.34110  0.91370  0.78700  Biso   1.000  I
  I4       1.0000 0.36810  0.12750  0.69430  Biso   1.000  I
  I5       1.0000 0.22940  0.15140  0.54750  Biso   1.000  I
  I6       1.0000 0.12680  0.23480  0.43943  Biso   1.000  I
  I7       1.0000 0.02972  0.03830  0.39060  Biso   1.000  I
  I8       1.0000 0.11980  0.11760  0.30260  Biso   1.000  I
  I9       1.0000 0.83880  0.33900  0.28500  Biso   1.000  I
  I10      1.0000 0.88740  0.15170  0.16680  Biso   1.000  I
  I11      1.0000 0.14750  0.57050  0.95450  Biso   1.000  I
  I12      1.0000 0.25000  0.60390  0.07030  Biso   1.000  I
  N1       1.0000 0.56110  0.36470  0.79830  Biso   1.000  N
  C1       1.0000 0.52940  0.41980  0.80030  Biso   1.000  C
  H1       1.0000 0.51180  0.40650  0.82020  Biso   1.000  H
  C2       1.0000 0.52330  0.49580  0.77260  Biso   1.000  C
  H2       1.0000 0.50170  0.53430  0.77400  Biso   1.000  H
  C3       1.0000 0.54850  0.51480  0.74340  Biso   1.000  C
  C4       1.0000 0.57840  0.45960  0.74170  Biso   1.000  C
  H3       1.0000 0.59530  0.47040  0.72070  Biso   1.000  H
  C5       1.0000 0.58490  0.38910  0.76920  Biso   1.000  C
  H4       1.0000 0.60760  0.35390  0.76840  Biso   1.000  H
  N2       1.0000 0.41720  0.89990  0.70740  Biso   1.000  N
  C6       1.0000 0.43460  0.89800  0.66690  Biso   1.000  C
  H5       1.0000 0.42440  0.93370  0.64130  Biso   1.000  H
  C7       1.0000 0.46240  0.84920  0.66680  Biso   1.000  C
  H6       1.0000 0.47380  0.85260  0.64050  Biso   1.000  H
  C8       1.0000 0.47960  0.79050  0.69890  Biso   1.000  C
  C9       1.0000 0.43150  0.84310  0.74070  Biso   1.000  C
  H7       1.0000 0.41950  0.83910  0.76670  Biso   1.000  H
  C10      1.0000 0.46300  0.79080  0.73790  Biso   1.000  C
  H8       1.0000 0.47400  0.75380  0.76290  Biso   1.000  H
  N3       1.0000 0.63550  0.72790  0.56620  Biso   1.000  N
  C11      1.0000 0.64100  0.65900  0.59410  Biso   1.000  C
  H9       1.0000 0.65870  0.61440  0.58820  Biso   1.000  H
  C12      1.0000 0.62120  0.64600  0.63530  Biso   1.000  C
  H10      1.0000 0.63020  0.60780  0.66060  Biso   1.000  H
  C13      1.0000 0.58580  0.70190  0.62810  Biso   1.000  C
  C14      1.0000 0.57750  0.76210  0.59460  Biso   1.000  C
  H11      1.0000 0.55310  0.79350  0.59020  Biso   1.000  H
  C15      1.0000 0.60350  0.77870  0.56670  Biso   1.000  C
  H12      1.0000 0.59880  0.82830  0.54680  Biso   1.000  H
  C16      1.0000 0.54380  0.59810  0.71500  Biso   1.000  C
  N4       1.0000 0.51510  0.65710  0.72350  Biso   1.000  N
  C17      1.0000 0.51180  0.72650  0.69580  Biso   1.000  C
  N5       1.0000 0.53280  0.74380  0.66300  Biso   1.000  N
  C18      1.0000 0.55890  0.68290  0.65930  Biso   1.000  C
  N6       1.0000 0.56630  0.60990  0.68570  Biso   1.000  N
  N7       1.0000 0.32640  0.91200  0.65800  Biso   1.000  N
  C19      1.0000 0.31990  0.82300  0.66280  Biso   1.000  C
  H13      1.0000 0.33310  0.79220  0.68920  Biso   1.000  H
  C20      1.0000 0.29380  0.77810  0.62840  Biso   1.000  C
  H14      1.0000 0.29210  0.71530  0.62930  Biso   1.000  H
  C21      1.0000 0.27030  0.82440  0.59280  Biso   1.000  C
  C22      1.0000 0.27650  0.91390  0.59170  Biso   1.000  C
  H15      1.0000 0.26190  0.94810  0.56740  Biso   1.000  H
  C23      1.0000 0.30280  0.95390  0.62420  Biso   1.000  C
  H16      1.0000 0.30490  0.01660  0.62300  Biso   1.000  H
  N8       1.0000 0.18560  0.37990  0.52670  Biso   1.000  N
  C24      1.0000 0.16550  0.43350  0.49800  Biso   1.000  C
  H17      1.0000 0.14460  0.40930  0.47590  Biso   1.000  H
  C25      1.0000 0.17190  0.52260  0.49660  Biso   1.000  C
  H18      1.0000 0.15700  0.55720  0.47270  Biso   1.000  H
  C26      1.0000 0.19950  0.56210  0.52960  Biso   1.000  C
  C27      1.0000 0.22220  0.50640  0.56290  Biso   1.000  C
  H19      1.0000 0.24370  0.52950  0.58450  Biso   1.000  H
  C28      1.0000 0.21170  0.41250  0.56340  Biso   1.000  C
  H20      1.0000 0.22270  0.37550  0.58840  Biso   1.000  H
  N9       1.0000 0.12350  0.93710  0.38860  Biso   1.000  N
  C29      1.0000 0.12280  0.84910  0.38750  Biso   1.000  C
  H21      1.0000 0.10480  0.82070  0.36360  Biso   1.000  H
  C30      1.0000 0.14780  0.79520  0.42080  Biso   1.000  C
  H22      1.0000 0.14950  0.73290  0.41690  Biso   1.000  H
  C31      1.0000 0.17040  0.83870  0.46000  Biso   1.000  C
  C32      1.0000 0.17520  0.92950  0.45430  Biso   1.000  C
  H23      1.0000 0.19490  0.96230  0.47440  Biso   1.000  H
  C33      1.0000 0.14970  0.97070  0.41750  Biso   1.000  C
  H24      1.0000 0.15320  0.03270  0.41470  Biso   1.000  H
  C34      1.0000 0.24060  0.77810  0.55860  Biso   1.000  C
  N10      1.0000 0.23590  0.69240  0.56330  Biso   1.000  N
  C35      1.0000 0.20690  0.65870  0.53060  Biso   1.000  C
  N11      1.0000 0.18440  0.70180  0.49690  Biso   1.000  N
  C36      1.0000 0.19350  0.78770  0.49460  Biso   1.000  C
  N12      1.0000 0.22150  0.82940  0.52440  Biso   1.000  N
  N13      1.0000 0.06210  0.90410  0.29720  Biso   1.000  N
  C37      1.0000 0.03570  0.84850  0.30070  Biso   1.000  C
  H25      1.0000 0.02040  0.86070  0.32310  Biso   1.000  H
  C38      1.0000 0.02640  0.77310  0.27610  Biso   1.000  C
  H26      1.0000 0.00520  0.73560  0.28040  Biso   1.000  H
  C39      1.0000 0.04970  0.75390  0.24410  Biso   1.000  C
  C40      1.0000 0.07780  0.81650  0.23720  Biso   1.000  C
  H27      1.0000 0.09310  0.80860  0.21430  Biso   1.000  H
  C41      1.0000 0.08270  0.89200  0.26560  Biso   1.000  C
  H28      1.0000 0.10170  0.93550  0.26150  Biso   1.000  H
  N14      1.0000 0.91870  0.36830  0.20550  Biso   1.000  N
  C42      1.0000 0.93360  0.36750  0.17300  Biso   1.000  C
  H29      1.0000 0.92320  0.32590  0.14990  Biso   1.000  H
  C43      1.0000 0.96700  0.42500  0.16420  Biso   1.000  C
  H30      1.0000 0.97800  0.42330  0.13760  Biso   1.000  H
  C44      1.0000 0.97930  0.48310  0.20210  Biso   1.000  C
  C45      1.0000 0.96400  0.48120  0.23750  Biso   1.000  C
  H31      1.0000 0.97370  0.51920  0.26250  Biso   1.000  H
  C46      1.0000 0.93300  0.42270  0.23910  Biso   1.000  C
  H32      1.0000 0.92180  0.42200  0.26560  Biso   1.000  H
  N15      1.0000 0.14120  0.54200  0.07320  Biso   1.000  N
  C47      1.0000 0.10730  0.50450  0.06670  Biso   1.000  C
  H33      1.0000 0.09950  0.46930  0.04010  Biso   1.000  H
  C48      1.0000 0.08100  0.51240  0.09640  Biso   1.000  C
  H34      1.0000 0.05840  0.47530  0.09370  Biso   1.000  H
  C49      1.0000 0.08910  0.57570  0.12950  Biso   1.000  C
  C50      1.0000 0.12480  0.61480  0.13480  Biso   1.000  C
  H35      1.0000 0.13100  0.65820  0.15820  Biso   1.000  H
  C51      1.0000 0.15130  0.59870  0.11120  Biso   1.000  C
  H36      1.0000 0.17690  0.62430  0.11900  Biso   1.000  H
  C52      1.0000 0.04440  0.67010  0.21830  Biso   1.000  C
  N16      1.0000 0.01720  0.61480  0.22370  Biso   1.000  N
  C53      1.0000 0.01230  0.54600  0.19560  Biso   1.000  C
  N17      1.0000 0.03330  0.52700  0.16570  Biso   1.000  N
  C54      1.0000 0.06380  0.58780  0.16490  Biso   1.000  C
  N18      1.0000 0.06900  0.66160  0.18900  Biso   1.000  N
  N19      1.0000 0.19050  0.39420  0.03080  Biso   1.000  N
  C55      1.0000 0.21790  0.35700  0.05610  Biso   1.000  C
  H37      1.0000 0.23830  0.39340  0.07240  Biso   1.000  H
  C56      1.0000 0.22190  0.27010  0.06290  Biso   1.000  C
  H38      1.0000 0.24040  0.24930  0.08860  Biso   1.000  H
  C57      1.0000 0.20100  0.21160  0.03520  Biso   1.000  C
  C58      1.0000 0.17260  0.25030  0.99960  Biso   1.000  C
  H39      1.0000 0.15640  0.21530  0.97690  Biso   1.000  H
  C59      1.0000 0.16990  0.34270  0.99980  Biso   1.000  C
  H40      1.0000 0.15180  0.37000  0.97560  Biso   1.000  H
  N20      1.0000 0.12000  0.83770  0.88920  Biso   1.000  N
  C60      1.0000 0.11330  0.92310  0.90150  Biso   1.000  C
  H41      1.0000 0.09030  0.95180  0.88520  Biso   1.000  H
  C61      1.0000 0.13570  0.96780  0.93340  Biso   1.000  C
  H42      1.0000 0.12960  0.02800  0.93810  Biso   1.000  H
  C62      1.0000 0.16630  0.93180  0.95930  Biso   1.000  C
  C63      1.0000 0.17210  0.84330  0.95420  Biso   1.000  C
  H43      1.0000 0.19220  0.81360  0.97530  Biso   1.000  H
  C64      1.0000 0.14950  0.79630  0.91930  Biso   1.000  C
  H44      1.0000 0.15440  0.73500  0.91590  Biso   1.000  H
  N21      1.0000 0.32800  0.85950  0.15640  Biso   1.000  N
  C65      1.0000 0.30700  0.81570  0.12070  Biso   1.000  C
  H45      1.0000 0.31210  0.75440  0.11730  Biso   1.000  H
  C66      1.0000 0.27760  0.85720  0.08800  Biso   1.000  C
  H46      1.0000 0.26310  0.82580  0.06250  Biso   1.000  H
  C67      1.0000 0.27080  0.94610  0.09470  Biso   1.000  C
  C68      1.0000 0.29240  0.99070  0.13180  Biso   1.000  C
  H47      1.0000 0.28730  0.05080  0.13810  Biso   1.000  H
  C69      1.0000 0.32210  0.94190  0.15940  Biso   1.000  C
  H48      1.0000 0.33960  0.97320  0.18260  Biso   1.000  H
  C70      1.0000 0.20630  0.11520  0.03320  Biso   1.000  C
  N22      1.0000 0.18180  0.06840  0.00370  Biso   1.000  N
  C71      1.0000 0.19070  0.98290  0.99990  Biso   1.000  C
  N23      1.0000 0.22050  0.94150  0.02630  Biso   1.000  N
  C72      1.0000 0.24060  0.99100  0.05980  Biso   1.000  C
  N24      1.0000 0.23530  0.07930  0.06500  Biso   1.000  N
  Zn7      1.0000 0.17830  0.24120  0.52860  Biso   1.000  Zn
  I13      1.0000 0.61530  0.15240  0.81430  Biso   1.000  I
  I14      1.0000 0.51850  0.24420  0.88070  Biso   1.000  I
  I15      1.0000 0.34690  0.95650  0.77770  Biso   1.000  I
  I16      1.0000 0.38260  0.12330  0.66570  Biso   1.000  I
  I17      1.0000 0.24240  0.15750  0.56700  Biso   1.000  I
  I18      1.0000 0.13950  0.20350  0.44850  Biso   1.000  I
  I19      1.0000 0.02230  0.02380  0.38370  Biso   1.000  I
  I20      1.0000 0.10960  0.12520  0.30410  Biso   1.000  I
  I21      1.0000 0.84990  0.31560  0.27830  Biso   1.000  I
  I22      1.0000 0.87730  0.14030  0.17400  Biso   1.000  I
  I23      1.0000 0.12750  0.54420  0.94170  Biso   1.000  I
  I24      1.0000 0.23190  0.61500  0.04770  Biso   1.000  I
  Zn8      1.0000 0.07772  0.76620  0.84554  Biso   1.000  Zn
  Zn9      1.0000 0.86566  0.47270  0.70934  Biso   1.000  Zn
  Zn10     1.0000 0.58164  0.50737  0.34312  Biso   1.000  Zn
  Zn11     1.0000 0.36840  0.79290  0.20486  Biso   1.000  Zn
  Zn12     1.0000 0.67805  0.02810  0.02680  Biso   1.000  Zn
  Zn13     1.0000 0.66970  0.74520  0.51820  Biso   1.000  Zn
  I25      1.0000 0.11283  0.65120  0.80330  Biso   1.000  I
  I26      1.0000 0.02420  0.73770  0.88990  Biso   1.000  I
  I27      1.0000 0.84110  0.41370  0.78700  Biso   1.000  I
  I28      1.0000 0.86810  0.62750  0.69430  Biso   1.000  I
  I29      1.0000 0.72940  0.65140  0.54750  Biso   1.000  I
  I30      1.0000 0.62680  0.73480  0.43943  Biso   1.000  I
  I31      1.0000 0.52972  0.53830  0.39060  Biso   1.000  I
  I32      1.0000 0.61980  0.61760  0.30260  Biso   1.000  I
  I33      1.0000 0.33880  0.83900  0.28500  Biso   1.000  I
  I34      1.0000 0.38740  0.65170  0.16680  Biso   1.000  I
  I35      1.0000 0.64750  0.07050  0.95450  Biso   1.000  I
  I36      1.0000 0.75000  0.10390  0.07030  Biso   1.000  I
  N25      1.0000 0.06110  0.86470  0.79830  Biso   1.000  N
  C73      1.0000 0.02940  0.91980  0.80030  Biso   1.000  C
  H49      1.0000 0.01180  0.90650  0.82020  Biso   1.000  H
  C74      1.0000 0.02330  0.99580  0.77260  Biso   1.000  C
  H50      1.0000 0.00170  0.03430  0.77400  Biso   1.000  H
  C75      1.0000 0.04850  0.01480  0.74340  Biso   1.000  C
  C76      1.0000 0.07840  0.95960  0.74170  Biso   1.000  C
  H51      1.0000 0.09530  0.97040  0.72070  Biso   1.000  H
  C77      1.0000 0.08490  0.88910  0.76920  Biso   1.000  C
  H52      1.0000 0.10760  0.85390  0.76840  Biso   1.000  H
  N26      1.0000 0.91720  0.39990  0.70740  Biso   1.000  N
  C78      1.0000 0.93460  0.39800  0.66690  Biso   1.000  C
  H53      1.0000 0.92440  0.43370  0.64130  Biso   1.000  H
  C79      1.0000 0.96240  0.34920  0.66680  Biso   1.000  C
  H54      1.0000 0.97380  0.35260  0.64050  Biso   1.000  H
  C80      1.0000 0.97960  0.29050  0.69890  Biso   1.000  C
  C81      1.0000 0.93150  0.34310  0.74070  Biso   1.000  C
  H55      1.0000 0.91950  0.33910  0.76670  Biso   1.000  H
  C82      1.0000 0.96300  0.29080  0.73790  Biso   1.000  C
  H56      1.0000 0.97400  0.25380  0.76290  Biso   1.000  H
  N27      1.0000 0.13550  0.22790  0.56620  Biso   1.000  N
  C83      1.0000 0.14100  0.15900  0.59410  Biso   1.000  C
  H57      1.0000 0.15870  0.11440  0.58820  Biso   1.000  H
  C84      1.0000 0.12120  0.14600  0.63530  Biso   1.000  C
  H58      1.0000 0.13020  0.10780  0.66060  Biso   1.000  H
  C85      1.0000 0.08580  0.20190  0.62810  Biso   1.000  C
  C86      1.0000 0.07750  0.26210  0.59460  Biso   1.000  C
  H59      1.0000 0.05310  0.29350  0.59020  Biso   1.000  H
  C87      1.0000 0.10350  0.27870  0.56670  Biso   1.000  C
  H60      1.0000 0.09880  0.32830  0.54680  Biso   1.000  H
  C88      1.0000 0.04380  0.09810  0.71500  Biso   1.000  C
  N28      1.0000 0.01510  0.15710  0.72350  Biso   1.000  N
  C89      1.0000 0.01180  0.22650  0.69580  Biso   1.000  C
  N29      1.0000 0.03280  0.24380  0.66300  Biso   1.000  N
  C90      1.0000 0.05890  0.18290  0.65930  Biso   1.000  C
  N30      1.0000 0.06630  0.10990  0.68570  Biso   1.000  N
  N31      1.0000 0.82640  0.41200  0.65800  Biso   1.000  N
  C91      1.0000 0.81990  0.32300  0.66280  Biso   1.000  C
  H61      1.0000 0.83310  0.29220  0.68920  Biso   1.000  H
  C92      1.0000 0.79380  0.27810  0.62840  Biso   1.000  C
  H62      1.0000 0.79210  0.21530  0.62930  Biso   1.000  H
  C93      1.0000 0.77030  0.32440  0.59280  Biso   1.000  C
  C94      1.0000 0.77650  0.41390  0.59170  Biso   1.000  C
  H63      1.0000 0.76190  0.44810  0.56740  Biso   1.000  H
  C95      1.0000 0.80280  0.45390  0.62420  Biso   1.000  C
  H64      1.0000 0.80490  0.51660  0.62300  Biso   1.000  H
  N32      1.0000 0.68560  0.87990  0.52670  Biso   1.000  N
  C96      1.0000 0.66550  0.93350  0.49800  Biso   1.000  C
  H65      1.0000 0.64460  0.90930  0.47590  Biso   1.000  H
  C97      1.0000 0.67190  0.02260  0.49660  Biso   1.000  C
  H66      1.0000 0.65700  0.05720  0.47270  Biso   1.000  H
  C98      1.0000 0.69950  0.06210  0.52960  Biso   1.000  C
  C99      1.0000 0.72220  0.00640  0.56290  Biso   1.000  C
  H67      1.0000 0.74370  0.02950  0.58450  Biso   1.000  H
  C100     1.0000 0.71170  0.91250  0.56340  Biso   1.000  C
  H68      1.0000 0.72270  0.87550  0.58840  Biso   1.000  H
  N33      1.0000 0.62350  0.43710  0.38860  Biso   1.000  N
  C101     1.0000 0.62280  0.34910  0.38750  Biso   1.000  C
  H69      1.0000 0.60480  0.32070  0.36360  Biso   1.000  H
  C102     1.0000 0.64780  0.29520  0.42080  Biso   1.000  C
  H70      1.0000 0.64950  0.23290  0.41690  Biso   1.000  H
  C103     1.0000 0.67040  0.33870  0.46000  Biso   1.000  C
  C104     1.0000 0.67520  0.42950  0.45430  Biso   1.000  C
  H71      1.0000 0.69490  0.46230  0.47440  Biso   1.000  H
  C105     1.0000 0.64970  0.47070  0.41750  Biso   1.000  C
  H72      1.0000 0.65320  0.53270  0.41470  Biso   1.000  H
  C106     1.0000 0.74060  0.27810  0.55860  Biso   1.000  C
  N34      1.0000 0.73590  0.19240  0.56330  Biso   1.000  N
  C107     1.0000 0.70690  0.15870  0.53060  Biso   1.000  C
  N35      1.0000 0.68440  0.20180  0.49690  Biso   1.000  N
  C108     1.0000 0.69350  0.28770  0.49460  Biso   1.000  C
  N36      1.0000 0.72150  0.32940  0.52440  Biso   1.000  N
  N37      1.0000 0.56210  0.40410  0.29720  Biso   1.000  N
  C109     1.0000 0.53570  0.34850  0.30070  Biso   1.000  C
  H73      1.0000 0.52040  0.36070  0.32310  Biso   1.000  H
  C110     1.0000 0.52640  0.27310  0.27610  Biso   1.000  C
  H74      1.0000 0.50520  0.23560  0.28040  Biso   1.000  H
  C111     1.0000 0.54970  0.25390  0.24410  Biso   1.000  C
  C112     1.0000 0.57780  0.31650  0.23720  Biso   1.000  C
  H75      1.0000 0.59310  0.30860  0.21430  Biso   1.000  H
  C113     1.0000 0.58270  0.39200  0.26560  Biso   1.000  C
  H76      1.0000 0.60170  0.43550  0.26150  Biso   1.000  H
  N38      1.0000 0.41870  0.86830  0.20550  Biso   1.000  N
  C114     1.0000 0.43360  0.86750  0.17300  Biso   1.000  C
  H77      1.0000 0.42320  0.82590  0.14990  Biso   1.000  H
  C115     1.0000 0.46700  0.92500  0.16420  Biso   1.000  C
  H78      1.0000 0.47800  0.92330  0.13760  Biso   1.000  H
  C116     1.0000 0.47930  0.98310  0.20210  Biso   1.000  C
  C117     1.0000 0.46400  0.98120  0.23750  Biso   1.000  C
  H79      1.0000 0.47370  0.01920  0.26250  Biso   1.000  H
  C118     1.0000 0.43300  0.92270  0.23910  Biso   1.000  C
  H80      1.0000 0.42180  0.92200  0.26560  Biso   1.000  H
  N39      1.0000 0.64120  0.04200  0.07320  Biso   1.000  N
  C119     1.0000 0.60730  0.00450  0.06670  Biso   1.000  C
  H81      1.0000 0.59950  0.96930  0.04010  Biso   1.000  H
  C120     1.0000 0.58100  0.01240  0.09640  Biso   1.000  C
  H82      1.0000 0.55840  0.97530  0.09370  Biso   1.000  H
  C121     1.0000 0.58910  0.07570  0.12950  Biso   1.000  C
  C122     1.0000 0.62480  0.11480  0.13480  Biso   1.000  C
  H83      1.0000 0.63100  0.15820  0.15820  Biso   1.000  H
  C123     1.0000 0.65130  0.09870  0.11120  Biso   1.000  C
  H84      1.0000 0.67690  0.12430  0.11900  Biso   1.000  H
  C124     1.0000 0.54440  0.17010  0.21830  Biso   1.000  C
  N40      1.0000 0.51720  0.11480  0.22370  Biso   1.000  N
  C125     1.0000 0.51230  0.04600  0.19560  Biso   1.000  C
  N41      1.0000 0.53330  0.02700  0.16570  Biso   1.000  N
  C126     1.0000 0.56380  0.08780  0.16490  Biso   1.000  C
  N42      1.0000 0.56900  0.16160  0.18900  Biso   1.000  N
  N43      1.0000 0.69050  0.89420  0.03080  Biso   1.000  N
  C127     1.0000 0.71790  0.85700  0.05610  Biso   1.000  C
  H85      1.0000 0.73830  0.89340  0.07240  Biso   1.000  H
  C128     1.0000 0.72190  0.77010  0.06290  Biso   1.000  C
  H86      1.0000 0.74040  0.74930  0.08860  Biso   1.000  H
  C129     1.0000 0.70100  0.71160  0.03520  Biso   1.000  C
  C130     1.0000 0.67260  0.75030  0.99960  Biso   1.000  C
  H87      1.0000 0.65640  0.71530  0.97690  Biso   1.000  H
  C131     1.0000 0.66990  0.84270  0.99980  Biso   1.000  C
  H88      1.0000 0.65180  0.87000  0.97560  Biso   1.000  H
  N44      1.0000 0.62000  0.33770  0.88920  Biso   1.000  N
  C132     1.0000 0.61330  0.42310  0.90150  Biso   1.000  C
  H89      1.0000 0.59030  0.45180  0.88520  Biso   1.000  H
  C133     1.0000 0.63570  0.46780  0.93340  Biso   1.000  C
  H90      1.0000 0.62960  0.52800  0.93810  Biso   1.000  H
  C134     1.0000 0.66630  0.43180  0.95930  Biso   1.000  C
  C135     1.0000 0.67210  0.34330  0.95420  Biso   1.000  C
  H91      1.0000 0.69220  0.31360  0.97530  Biso   1.000  H
  C136     1.0000 0.64950  0.29630  0.91930  Biso   1.000  C
  H92      1.0000 0.65440  0.23500  0.91590  Biso   1.000  H
  N45      1.0000 0.82800  0.35950  0.15640  Biso   1.000  N
  C137     1.0000 0.80700  0.31570  0.12070  Biso   1.000  C
  H93      1.0000 0.81210  0.25440  0.11730  Biso   1.000  H
  C138     1.0000 0.77760  0.35720  0.08800  Biso   1.000  C
  H94      1.0000 0.76310  0.32580  0.06250  Biso   1.000  H
  C139     1.0000 0.77080  0.44610  0.09470  Biso   1.000  C
  C140     1.0000 0.79240  0.49070  0.13180  Biso   1.000  C
  H95      1.0000 0.78730  0.55080  0.13810  Biso   1.000  H
  C141     1.0000 0.82210  0.44190  0.15940  Biso   1.000  C
  H96      1.0000 0.83960  0.47320  0.18260  Biso   1.000  H
  C142     1.0000 0.70630  0.61520  0.03320  Biso   1.000  C
  N46      1.0000 0.68180  0.56840  0.00370  Biso   1.000  N
  C143     1.0000 0.69070  0.48290  0.99990  Biso   1.000  C
  N47      1.0000 0.72050  0.44150  0.02630  Biso   1.000  N
  C144     1.0000 0.74060  0.49100  0.05980  Biso   1.000  C
  N48      1.0000 0.73530  0.57930  0.06500  Biso   1.000  N
  Zn14     1.0000 0.67830  0.74120  0.52860  Biso   1.000  Zn
  I37      1.0000 0.11530  0.65240  0.81430  Biso   1.000  I
  I38      1.0000 0.01850  0.74420  0.88070  Biso   1.000  I
  I39      1.0000 0.84690  0.45650  0.77770  Biso   1.000  I
  I40      1.0000 0.88260  0.62330  0.66570  Biso   1.000  I
  I41      1.0000 0.74240  0.65750  0.56700  Biso   1.000  I
  I42      1.0000 0.63950  0.70350  0.44850  Biso   1.000  I
  I43      1.0000 0.52230  0.52380  0.38370  Biso   1.000  I
  I44      1.0000 0.60960  0.62520  0.30410  Biso   1.000  I
  I45      1.0000 0.34990  0.81560  0.27830  Biso   1.000  I
  I46      1.0000 0.37730  0.64030  0.17400  Biso   1.000  I
  I47      1.0000 0.62750  0.04420  0.94170  Biso   1.000  I
  I48      1.0000 0.73190  0.11500  0.04770  Biso   1.000  I
  Zn15     1.0000 0.42228  0.26620  0.15446  Biso   1.000  Zn
  Zn16     1.0000 0.63434  0.97270  0.29066  Biso   1.000  Zn
  Zn17     1.0000 0.91836  0.00737  0.65688  Biso   1.000  Zn
  Zn18     1.0000 0.13160  0.29290  0.79514  Biso   1.000  Zn
  Zn19     1.0000 0.82195  0.52810  0.97320  Biso   1.000  Zn
  Zn20     1.0000 0.83030  0.24520  0.48180  Biso   1.000  Zn
  I49      1.0000 0.38717  0.15120  0.19670  Biso   1.000  I
  I50      1.0000 0.47580  0.23770  0.11010  Biso   1.000  I
  I51      1.0000 0.65890  0.91370  0.21300  Biso   1.000  I
  I52      1.0000 0.63190  0.12750  0.30570  Biso   1.000  I
  I53      1.0000 0.77060  0.15140  0.45250  Biso   1.000  I
  I54      1.0000 0.87320  0.23480  0.56057  Biso   1.000  I
  I55      1.0000 0.97028  0.03830  0.60940  Biso   1.000  I
  I56      1.0000 0.88020  0.11760  0.69740  Biso   1.000  I
  I57      1.0000 0.16120  0.33900  0.71500  Biso   1.000  I
  I58      1.0000 0.11260  0.15170  0.83320  Biso   1.000  I
  I59      1.0000 0.85250  0.57050  0.04550  Biso   1.000  I
  I60      1.0000 0.75000  0.60390  0.92970  Biso   1.000  I
  N49      1.0000 0.43890  0.36470  0.20170  Biso   1.000  N
  C145     1.0000 0.47060  0.41980  0.19970  Biso   1.000  C
  H97      1.0000 0.48820  0.40650  0.17980  Biso   1.000  H
  C146     1.0000 0.47670  0.49580  0.22740  Biso   1.000  C
  H98      1.0000 0.49830  0.53430  0.22600  Biso   1.000  H
  C147     1.0000 0.45150  0.51480  0.25660  Biso   1.000  C
  C148     1.0000 0.42160  0.45960  0.25830  Biso   1.000  C
  H99      1.0000 0.40470  0.47040  0.27930  Biso   1.000  H
  C149     1.0000 0.41510  0.38910  0.23080  Biso   1.000  C
  H100     1.0000 0.39240  0.35390  0.23160  Biso   1.000  H
  N50      1.0000 0.58280  0.89990  0.29260  Biso   1.000  N
  C150     1.0000 0.56540  0.89800  0.33310  Biso   1.000  C
  H101     1.0000 0.57560  0.93370  0.35870  Biso   1.000  H
  C151     1.0000 0.53760  0.84920  0.33320  Biso   1.000  C
  H102     1.0000 0.52620  0.85260  0.35950  Biso   1.000  H
  C152     1.0000 0.52040  0.79050  0.30110  Biso   1.000  C
  C153     1.0000 0.56850  0.84310  0.25930  Biso   1.000  C
  H103     1.0000 0.58050  0.83910  0.23330  Biso   1.000  H
  C154     1.0000 0.53700  0.79080  0.26210  Biso   1.000  C
  H104     1.0000 0.52600  0.75380  0.23710  Biso   1.000  H
  N51      1.0000 0.36450  0.72790  0.43380  Biso   1.000  N
  C155     1.0000 0.35900  0.65900  0.40590  Biso   1.000  C
  H105     1.0000 0.34130  0.61440  0.41180  Biso   1.000  H
  C156     1.0000 0.37880  0.64600  0.36470  Biso   1.000  C
  H106     1.0000 0.36980  0.60780  0.33940  Biso   1.000  H
  C157     1.0000 0.41420  0.70190  0.37190  Biso   1.000  C
  C158     1.0000 0.42250  0.76210  0.40540  Biso   1.000  C
  H107     1.0000 0.44690  0.79350  0.40980  Biso   1.000  H
  C159     1.0000 0.39650  0.77870  0.43330  Biso   1.000  C
  H108     1.0000 0.40120  0.82830  0.45320  Biso   1.000  H
  C160     1.0000 0.45620  0.59810  0.28500  Biso   1.000  C
  N52      1.0000 0.48490  0.65710  0.27650  Biso   1.000  N
  C161     1.0000 0.48820  0.72650  0.30420  Biso   1.000  C
  N53      1.0000 0.46720  0.74380  0.33700  Biso   1.000  N
  C162     1.0000 0.44110  0.68290  0.34070  Biso   1.000  C
  N54      1.0000 0.43370  0.60990  0.31430  Biso   1.000  N
  N55      1.0000 0.67360  0.91200  0.34200  Biso   1.000  N
  C163     1.0000 0.68010  0.82300  0.33720  Biso   1.000  C
  H109     1.0000 0.66690  0.79220  0.31080  Biso   1.000  H
  C164     1.0000 0.70620  0.77810  0.37160  Biso   1.000  C
  H110     1.0000 0.70790  0.71530  0.37070  Biso   1.000  H
  C165     1.0000 0.72970  0.82440  0.40720  Biso   1.000  C
  C166     1.0000 0.72350  0.91390  0.40830  Biso   1.000  C
  H111     1.0000 0.73810  0.94810  0.43260  Biso   1.000  H
  C167     1.0000 0.69720  0.95390  0.37580  Biso   1.000  C
  H112     1.0000 0.69510  0.01660  0.37700  Biso   1.000  H
  N56      1.0000 0.81440  0.37990  0.47330  Biso   1.000  N
  C168     1.0000 0.83450  0.43350  0.50200  Biso   1.000  C
  H113     1.0000 0.85540  0.40930  0.52410  Biso   1.000  H
  C169     1.0000 0.82810  0.52260  0.50340  Biso   1.000  C
  H114     1.0000 0.84300  0.55720  0.52730  Biso   1.000  H
  C170     1.0000 0.80050  0.56210  0.47040  Biso   1.000  C
  C171     1.0000 0.77780  0.50640  0.43710  Biso   1.000  C
  H115     1.0000 0.75630  0.52950  0.41550  Biso   1.000  H
  C172     1.0000 0.78830  0.41250  0.43660  Biso   1.000  C
  H116     1.0000 0.77730  0.37550  0.41160  Biso   1.000  H
  N57      1.0000 0.87650  0.93710  0.61140  Biso   1.000  N
  C173     1.0000 0.87720  0.84910  0.61250  Biso   1.000  C
  H117     1.0000 0.89520  0.82070  0.63640  Biso   1.000  H
  C174     1.0000 0.85220  0.79520  0.57920  Biso   1.000  C
  H118     1.0000 0.85050  0.73290  0.58310  Biso   1.000  H
  C175     1.0000 0.82960  0.83870  0.54000  Biso   1.000  C
  C176     1.0000 0.82480  0.92950  0.54570  Biso   1.000  C
  H119     1.0000 0.80510  0.96230  0.52560  Biso   1.000  H
  C177     1.0000 0.85030  0.97070  0.58250  Biso   1.000  C
  H120     1.0000 0.84680  0.03270  0.58530  Biso   1.000  H
  C178     1.0000 0.75940  0.77810  0.44140  Biso   1.000  C
  N58      1.0000 0.76410  0.69240  0.43670  Biso   1.000  N
  C179     1.0000 0.79310  0.65870  0.46940  Biso   1.000  C
  N59      1.0000 0.81560  0.70180  0.50310  Biso   1.000  N
  C180     1.0000 0.80650  0.78770  0.50540  Biso   1.000  C
  N60      1.0000 0.77850  0.82940  0.47560  Biso   1.000  N
  N61      1.0000 0.93790  0.90410  0.70280  Biso   1.000  N
  C181     1.0000 0.96430  0.84850  0.69930  Biso   1.000  C
  H121     1.0000 0.97960  0.86070  0.67690  Biso   1.000  H
  C182     1.0000 0.97360  0.77310  0.72390  Biso   1.000  C
  H122     1.0000 0.99480  0.73560  0.71960  Biso   1.000  H
  C183     1.0000 0.95030  0.75390  0.75590  Biso   1.000  C
  C184     1.0000 0.92220  0.81650  0.76280  Biso   1.000  C
  H123     1.0000 0.90690  0.80860  0.78570  Biso   1.000  H
  C185     1.0000 0.91730  0.89200  0.73440  Biso   1.000  C
  H124     1.0000 0.89830  0.93550  0.73850  Biso   1.000  H
  N62      1.0000 0.08130  0.36830  0.79450  Biso   1.000  N
  C186     1.0000 0.06640  0.36750  0.82700  Biso   1.000  C
  H125     1.0000 0.07680  0.32590  0.85010  Biso   1.000  H
  C187     1.0000 0.03300  0.42500  0.83580  Biso   1.000  C
  H126     1.0000 0.02200  0.42330  0.86240  Biso   1.000  H
  C188     1.0000 0.02070  0.48310  0.79790  Biso   1.000  C
  C189     1.0000 0.03600  0.48120  0.76250  Biso   1.000  C
  H127     1.0000 0.02630  0.51920  0.73750  Biso   1.000  H
  C190     1.0000 0.06700  0.42270  0.76090  Biso   1.000  C
  H128     1.0000 0.07820  0.42200  0.73440  Biso   1.000  H
  N63      1.0000 0.85880  0.54200  0.92680  Biso   1.000  N
  C191     1.0000 0.89270  0.50450  0.93330  Biso   1.000  C
  H129     1.0000 0.90050  0.46930  0.95990  Biso   1.000  H
  C192     1.0000 0.91900  0.51240  0.90360  Biso   1.000  C
  H130     1.0000 0.94160  0.47530  0.90630  Biso   1.000  H
  C193     1.0000 0.91090  0.57570  0.87050  Biso   1.000  C
  C194     1.0000 0.87520  0.61480  0.86520  Biso   1.000  C
  H131     1.0000 0.86900  0.65820  0.84180  Biso   1.000  H
  C195     1.0000 0.84870  0.59870  0.88880  Biso   1.000  C
  H132     1.0000 0.82310  0.62430  0.88100  Biso   1.000  H
  C196     1.0000 0.95560  0.67010  0.78170  Biso   1.000  C
  N64      1.0000 0.98280  0.61480  0.77630  Biso   1.000  N
  C197     1.0000 0.98770  0.54600  0.80440  Biso   1.000  C
  N65      1.0000 0.96670  0.52700  0.83430  Biso   1.000  N
  C198     1.0000 0.93620  0.58780  0.83510  Biso   1.000  C
  N66      1.0000 0.93100  0.66160  0.81100  Biso   1.000  N
  N67      1.0000 0.80950  0.39420  0.96920  Biso   1.000  N
  C199     1.0000 0.78210  0.35700  0.94390  Biso   1.000  C
  H133     1.0000 0.76170  0.39340  0.92760  Biso   1.000  H
  C200     1.0000 0.77810  0.27010  0.93710  Biso   1.000  C
  H134     1.0000 0.75960  0.24930  0.91140  Biso   1.000  H
  C201     1.0000 0.79900  0.21160  0.96480  Biso   1.000  C
  C202     1.0000 0.82740  0.25030  0.00040  Biso   1.000  C
  H135     1.0000 0.84360  0.21530  0.02310  Biso   1.000  H
  C203     1.0000 0.83010  0.34270  0.00020  Biso   1.000  C
  H136     1.0000 0.84820  0.37000  0.02440  Biso   1.000  H
  N68      1.0000 0.88000  0.83770  0.11080  Biso   1.000  N
  C204     1.0000 0.88670  0.92310  0.09850  Biso   1.000  C
  H137     1.0000 0.90970  0.95180  0.11480  Biso   1.000  H
  C205     1.0000 0.86430  0.96780  0.06660  Biso   1.000  C
  H138     1.0000 0.87040  0.02800  0.06190  Biso   1.000  H
  C206     1.0000 0.83370  0.93180  0.04070  Biso   1.000  C
  C207     1.0000 0.82790  0.84330  0.04580  Biso   1.000  C
  H139     1.0000 0.80780  0.81360  0.02470  Biso   1.000  H
  C208     1.0000 0.85050  0.79630  0.08070  Biso   1.000  C
  H140     1.0000 0.84560  0.73500  0.08410  Biso   1.000  H
  N69      1.0000 0.67200  0.85950  0.84360  Biso   1.000  N
  C209     1.0000 0.69300  0.81570  0.87930  Biso   1.000  C
  H141     1.0000 0.68790  0.75440  0.88270  Biso   1.000  H
  C210     1.0000 0.72240  0.85720  0.91200  Biso   1.000  C
  H142     1.0000 0.73690  0.82580  0.93750  Biso   1.000  H
  C211     1.0000 0.72920  0.94610  0.90530  Biso   1.000  C
  C212     1.0000 0.70760  0.99070  0.86820  Biso   1.000  C
  H143     1.0000 0.71270  0.05080  0.86190  Biso   1.000  H
  C213     1.0000 0.67790  0.94190  0.84060  Biso   1.000  C
  H144     1.0000 0.66040  0.97320  0.81740  Biso   1.000  H
  C214     1.0000 0.79370  0.11520  0.96680  Biso   1.000  C
  N70      1.0000 0.81820  0.06840  0.99630  Biso   1.000  N
  C215     1.0000 0.80930  0.98290  0.00010  Biso   1.000  C
  N71      1.0000 0.77950  0.94150  0.97370  Biso   1.000  N
  C216     1.0000 0.75940  0.99100  0.94020  Biso   1.000  C
  N72      1.0000 0.76470  0.07930  0.93500  Biso   1.000  N
  Zn21     1.0000 0.82170  0.24120  0.47140  Biso   1.000  Zn
  I61      1.0000 0.38470  0.15240  0.18570  Biso   1.000  I
  I62      1.0000 0.48150  0.24420  0.11930  Biso   1.000  I
  I63      1.0000 0.65310  0.95650  0.22230  Biso   1.000  I
  I64      1.0000 0.61740  0.12330  0.33430  Biso   1.000  I
  I65      1.0000 0.75760  0.15750  0.43300  Biso   1.000  I
  I66      1.0000 0.86050  0.20350  0.55150  Biso   1.000  I
  I67      1.0000 0.97770  0.02380  0.61630  Biso   1.000  I
  I68      1.0000 0.89040  0.12520  0.69590  Biso   1.000  I
  I69      1.0000 0.15010  0.31560  0.72170  Biso   1.000  I
  I70      1.0000 0.12270  0.14030  0.82600  Biso   1.000  I
  I71      1.0000 0.87250  0.54420  0.05830  Biso   1.000  I
  I72      1.0000 0.76810  0.61500  0.95230  Biso   1.000  I
  Zn22     1.0000 0.92228  0.76620  0.15446  Biso   1.000  Zn
  Zn23     1.0000 0.13434  0.47270  0.29066  Biso   1.000  Zn
  Zn24     1.0000 0.41836  0.50737  0.65688  Biso   1.000  Zn
  Zn25     1.0000 0.63160  0.79290  0.79514  Biso   1.000  Zn
  Zn26     1.0000 0.32195  0.02810  0.97320  Biso   1.000  Zn
  Zn27     1.0000 0.33030  0.74520  0.48180  Biso   1.000  Zn
  I73      1.0000 0.88717  0.65120  0.19670  Biso   1.000  I
  I74      1.0000 0.97580  0.73770  0.11010  Biso   1.000  I
  I75      1.0000 0.15890  0.41370  0.21300  Biso   1.000  I
  I76      1.0000 0.13190  0.62750  0.30570  Biso   1.000  I
  I77      1.0000 0.27060  0.65140  0.45250  Biso   1.000  I
  I78      1.0000 0.37320  0.73480  0.56057  Biso   1.000  I
  I79      1.0000 0.47028  0.53830  0.60940  Biso   1.000  I
  I80      1.0000 0.38020  0.61760  0.69740  Biso   1.000  I
  I81      1.0000 0.66120  0.83900  0.71500  Biso   1.000  I
  I82      1.0000 0.61260  0.65170  0.83320  Biso   1.000  I
  I83      1.0000 0.35250  0.07050  0.04550  Biso   1.000  I
  I84      1.0000 0.25000  0.10390  0.92970  Biso   1.000  I
  N73      1.0000 0.93890  0.86470  0.20170  Biso   1.000  N
  C217     1.0000 0.97060  0.91980  0.19970  Biso   1.000  C
  H145     1.0000 0.98820  0.90650  0.17980  Biso   1.000  H
  C218     1.0000 0.97670  0.99580  0.22740  Biso   1.000  C
  H146     1.0000 0.99830  0.03430  0.22600  Biso   1.000  H
  C219     1.0000 0.95150  0.01480  0.25660  Biso   1.000  C
  C220     1.0000 0.92160  0.95960  0.25830  Biso   1.000  C
  H147     1.0000 0.90470  0.97040  0.27930  Biso   1.000  H
  C221     1.0000 0.91510  0.88910  0.23080  Biso   1.000  C
  H148     1.0000 0.89240  0.85390  0.23160  Biso   1.000  H
  N74      1.0000 0.08280  0.39990  0.29260  Biso   1.000  N
  C222     1.0000 0.06540  0.39800  0.33310  Biso   1.000  C
  H149     1.0000 0.07560  0.43370  0.35870  Biso   1.000  H
  C223     1.0000 0.03760  0.34920  0.33320  Biso   1.000  C
  H150     1.0000 0.02620  0.35260  0.35950  Biso   1.000  H
  C224     1.0000 0.02040  0.29050  0.30110  Biso   1.000  C
  C225     1.0000 0.06850  0.34310  0.25930  Biso   1.000  C
  H151     1.0000 0.08050  0.33910  0.23330  Biso   1.000  H
  C226     1.0000 0.03700  0.29080  0.26210  Biso   1.000  C
  H152     1.0000 0.02600  0.25380  0.23710  Biso   1.000  H
  N75      1.0000 0.86450  0.22790  0.43380  Biso   1.000  N
  C227     1.0000 0.85900  0.15900  0.40590  Biso   1.000  C
  H153     1.0000 0.84130  0.11440  0.41180  Biso   1.000  H
  C228     1.0000 0.87880  0.14600  0.36470  Biso   1.000  C
  H154     1.0000 0.86980  0.10780  0.33940  Biso   1.000  H
  C229     1.0000 0.91420  0.20190  0.37190  Biso   1.000  C
  C230     1.0000 0.92250  0.26210  0.40540  Biso   1.000  C
  H155     1.0000 0.94690  0.29350  0.40980  Biso   1.000  H
  C231     1.0000 0.89650  0.27870  0.43330  Biso   1.000  C
  H156     1.0000 0.90120  0.32830  0.45320  Biso   1.000  H
  C232     1.0000 0.95620  0.09810  0.28500  Biso   1.000  C
  N76      1.0000 0.98490  0.15710  0.27650  Biso   1.000  N
  C233     1.0000 0.98820  0.22650  0.30420  Biso   1.000  C
  N77      1.0000 0.96720  0.24380  0.33700  Biso   1.000  N
  C234     1.0000 0.94110  0.18290  0.34070  Biso   1.000  C
  N78      1.0000 0.93370  0.10990  0.31430  Biso   1.000  N
  N79      1.0000 0.17360  0.41200  0.34200  Biso   1.000  N
  C235     1.0000 0.18010  0.32300  0.33720  Biso   1.000  C
  H157     1.0000 0.16690  0.29220  0.31080  Biso   1.000  H
  C236     1.0000 0.20620  0.27810  0.37160  Biso   1.000  C
  H158     1.0000 0.20790  0.21530  0.37070  Biso   1.000  H
  C237     1.0000 0.22970  0.32440  0.40720  Biso   1.000  C
  C238     1.0000 0.22350  0.41390  0.40830  Biso   1.000  C
  H159     1.0000 0.23810  0.44810  0.43260  Biso   1.000  H
  C239     1.0000 0.19720  0.45390  0.37580  Biso   1.000  C
  H160     1.0000 0.19510  0.51660  0.37700  Biso   1.000  H
  N80      1.0000 0.31440  0.87990  0.47330  Biso   1.000  N
  C240     1.0000 0.33450  0.93350  0.50200  Biso   1.000  C
  H161     1.0000 0.35540  0.90930  0.52410  Biso   1.000  H
  C241     1.0000 0.32810  0.02260  0.50340  Biso   1.000  C
  H162     1.0000 0.34300  0.05720  0.52730  Biso   1.000  H
  C242     1.0000 0.30050  0.06210  0.47040  Biso   1.000  C
  C243     1.0000 0.27780  0.00640  0.43710  Biso   1.000  C
  H163     1.0000 0.25630  0.02950  0.41550  Biso   1.000  H
  C244     1.0000 0.28830  0.91250  0.43660  Biso   1.000  C
  H164     1.0000 0.27730  0.87550  0.41160  Biso   1.000  H
  N81      1.0000 0.37650  0.43710  0.61140  Biso   1.000  N
  C245     1.0000 0.37720  0.34910  0.61250  Biso   1.000  C
  H165     1.0000 0.39520  0.32070  0.63640  Biso   1.000  H
  C246     1.0000 0.35220  0.29520  0.57920  Biso   1.000  C
  H166     1.0000 0.35050  0.23290  0.58310  Biso   1.000  H
  C247     1.0000 0.32960  0.33870  0.54000  Biso   1.000  C
  C248     1.0000 0.32480  0.42950  0.54570  Biso   1.000  C
  H167     1.0000 0.30510  0.46230  0.52560  Biso   1.000  H
  C249     1.0000 0.35030  0.47070  0.58250  Biso   1.000  C
  H168     1.0000 0.34680  0.53270  0.58530  Biso   1.000  H
  C250     1.0000 0.25940  0.27810  0.44140  Biso   1.000  C
  N82      1.0000 0.26410  0.19240  0.43670  Biso   1.000  N
  C251     1.0000 0.29310  0.15870  0.46940  Biso   1.000  C
  N83      1.0000 0.31560  0.20180  0.50310  Biso   1.000  N
  C252     1.0000 0.30650  0.28770  0.50540  Biso   1.000  C
  N84      1.0000 0.27850  0.32940  0.47560  Biso   1.000  N
  N85      1.0000 0.43790  0.40410  0.70280  Biso   1.000  N
  C253     1.0000 0.46430  0.34850  0.69930  Biso   1.000  C
  H169     1.0000 0.47960  0.36070  0.67690  Biso   1.000  H
  C254     1.0000 0.47360  0.27310  0.72390  Biso   1.000  C
  H170     1.0000 0.49480  0.23560  0.71960  Biso   1.000  H
  C255     1.0000 0.45030  0.25390  0.75590  Biso   1.000  C
  C256     1.0000 0.42220  0.31650  0.76280  Biso   1.000  C
  H171     1.0000 0.40690  0.30860  0.78570  Biso   1.000  H
  C257     1.0000 0.41730  0.39200  0.73440  Biso   1.000  C
  H172     1.0000 0.39830  0.43550  0.73850  Biso   1.000  H
  N86      1.0000 0.58130  0.86830  0.79450  Biso   1.000  N
  C258     1.0000 0.56640  0.86750  0.82700  Biso   1.000  C
  H173     1.0000 0.57680  0.82590  0.85010  Biso   1.000  H
  C259     1.0000 0.53300  0.92500  0.83580  Biso   1.000  C
  H174     1.0000 0.52200  0.92330  0.86240  Biso   1.000  H
  C260     1.0000 0.52070  0.98310  0.79790  Biso   1.000  C
  C261     1.0000 0.53600  0.98120  0.76250  Biso   1.000  C
  H175     1.0000 0.52630  0.01920  0.73750  Biso   1.000  H
  C262     1.0000 0.56700  0.92270  0.76090  Biso   1.000  C
  H176     1.0000 0.57820  0.92200  0.73440  Biso   1.000  H
  N87      1.0000 0.35880  0.04200  0.92680  Biso   1.000  N
  C263     1.0000 0.39270  0.00450  0.93330  Biso   1.000  C
  H177     1.0000 0.40050  0.96930  0.95990  Biso   1.000  H
  C264     1.0000 0.41900  0.01240  0.90360  Biso   1.000  C
  H178     1.0000 0.44160  0.97530  0.90630  Biso   1.000  H
  C265     1.0000 0.41090  0.07570  0.87050  Biso   1.000  C
  C266     1.0000 0.37520  0.11480  0.86520  Biso   1.000  C
  H179     1.0000 0.36900  0.15820  0.84180  Biso   1.000  H
  C267     1.0000 0.34870  0.09870  0.88880  Biso   1.000  C
  H180     1.0000 0.32310  0.12430  0.88100  Biso   1.000  H
  C268     1.0000 0.45560  0.17010  0.78170  Biso   1.000  C
  N88      1.0000 0.48280  0.11480  0.77630  Biso   1.000  N
  C269     1.0000 0.48770  0.04600  0.80440  Biso   1.000  C
  N89      1.0000 0.46670  0.02700  0.83430  Biso   1.000  N
  C270     1.0000 0.43620  0.08780  0.83510  Biso   1.000  C
  N90      1.0000 0.43100  0.16160  0.81100  Biso   1.000  N
  N91      1.0000 0.30950  0.89420  0.96920  Biso   1.000  N
  C271     1.0000 0.28210  0.85700  0.94390  Biso   1.000  C
  H181     1.0000 0.26170  0.89340  0.92760  Biso   1.000  H
  C272     1.0000 0.27810  0.77010  0.93710  Biso   1.000  C
  H182     1.0000 0.25960  0.74930  0.91140  Biso   1.000  H
  C273     1.0000 0.29900  0.71160  0.96480  Biso   1.000  C
  C274     1.0000 0.32740  0.75030  0.00040  Biso   1.000  C
  H183     1.0000 0.34360  0.71530  0.02310  Biso   1.000  H
  C275     1.0000 0.33010  0.84270  0.00020  Biso   1.000  C
  H184     1.0000 0.34820  0.87000  0.02440  Biso   1.000  H
  N92      1.0000 0.38000  0.33770  0.11080  Biso   1.000  N
  C276     1.0000 0.38670  0.42310  0.09850  Biso   1.000  C
  H185     1.0000 0.40970  0.45180  0.11480  Biso   1.000  H
  C277     1.0000 0.36430  0.46780  0.06660  Biso   1.000  C
  H186     1.0000 0.37040  0.52800  0.06190  Biso   1.000  H
  C278     1.0000 0.33370  0.43180  0.04070  Biso   1.000  C
  C279     1.0000 0.32790  0.34330  0.04580  Biso   1.000  C
  H187     1.0000 0.30780  0.31360  0.02470  Biso   1.000  H
  C280     1.0000 0.35050  0.29630  0.08070  Biso   1.000  C
  H188     1.0000 0.34560  0.23500  0.08410  Biso   1.000  H
  N93      1.0000 0.17200  0.35950  0.84360  Biso   1.000  N
  C281     1.0000 0.19300  0.31570  0.87930  Biso   1.000  C
  H189     1.0000 0.18790  0.25440  0.88270  Biso   1.000  H
  C282     1.0000 0.22240  0.35720  0.91200  Biso   1.000  C
  H190     1.0000 0.23690  0.32580  0.93750  Biso   1.000  H
  C283     1.0000 0.22920  0.44610  0.90530  Biso   1.000  C
  C284     1.0000 0.20760  0.49070  0.86820  Biso   1.000  C
  H191     1.0000 0.21270  0.55080  0.86190  Biso   1.000  H
  C285     1.0000 0.17790  0.44190  0.84060  Biso   1.000  C
  H192     1.0000 0.16040  0.47320  0.81740  Biso   1.000  H
  C286     1.0000 0.29370  0.61520  0.96680  Biso   1.000  C
  N94      1.0000 0.31820  0.56840  0.99630  Biso   1.000  N
  C287     1.0000 0.30930  0.48290  0.00010  Biso   1.000  C
  N95      1.0000 0.27950  0.44150  0.97370  Biso   1.000  N
  C288     1.0000 0.25940  0.49100  0.94020  Biso   1.000  C
  N96      1.0000 0.26470  0.57930  0.93500  Biso   1.000  N
  Zn28     1.0000 0.32170  0.74120  0.47140  Biso   1.000  Zn
  I85      1.0000 0.88470  0.65240  0.18570  Biso   1.000  I
  I86      1.0000 0.98150  0.74420  0.11930  Biso   1.000  I
  I87      1.0000 0.15310  0.45650  0.22230  Biso   1.000  I
  I88      1.0000 0.11740  0.62330  0.33430  Biso   1.000  I
  I89      1.0000 0.25760  0.65750  0.43300  Biso   1.000  I
  I90      1.0000 0.36050  0.70350  0.55150  Biso   1.000  I
  I91      1.0000 0.47770  0.52380  0.61630  Biso   1.000  I
  I92      1.0000 0.39040  0.62520  0.69590  Biso   1.000  I
  I93      1.0000 0.65010  0.81560  0.72170  Biso   1.000  I
  I94      1.0000 0.62270  0.64030  0.82600  Biso   1.000  I
  I95      1.0000 0.37250  0.04420  0.05830  Biso   1.000  I
  I96      1.0000 0.26810  0.11500  0.95230  Biso   1.000  I
