data_image0
_cell_length_a       12.079
_cell_length_b       5.2419
_cell_length_c       21.254
_cell_angle_alpha    90
_cell_angle_beta     103.886
_cell_angle_gamma    90

_symmetry_space_group_name_H-M    "P 1"
_symmetry_int_tables_number       1

loop_
  _symmetry_equiv_pos_as_xyz
  'x, y, z'

loop_
  _atom_site_label
  _atom_site_occupancy
  _atom_site_fract_x
  _atom_site_fract_y
  _atom_site_fract_z
  _atom_site_thermal_displace_type
  _atom_site_B_iso_or_equiv
  _atom_site_type_symbol
  Na1      1.0000 0.40660  0.67000  0.96840  Biso   1.000  Na
  Na2      1.0000 0.66410  0.71400  0.93130  Biso   1.000  Na
  Na3      1.0000 0.88510  0.15100  0.02420  Biso   1.000  Na
  Na4      1.0000 0.82380  0.81300  0.81460  Biso   1.000  Na
  O1       1.0000 0.74660  0.45900  0.03170  Biso   1.000  O
  O2       1.0000 0.50010  0.97100  0.92550  Biso   1.000  O
  O3       1.0000 0.74110  0.87800  0.03640  Biso   1.000  O
  O4       1.0000 0.98060  0.30600  0.94720  Biso   1.000  O
  H1       1.0000 0.92160  0.36060  0.90870  Biso   1.000  H
  H2       1.0000 0.02150  0.16030  0.93350  Biso   1.000  H
  O5       1.0000 0.98360  0.35300  0.12050  Biso   1.000  O
  O6       1.0000 0.52090  0.39600  0.92060  Biso   1.000  O
  O7       1.0000 0.77940  0.47300  0.87310  Biso   1.000  O
  O8       1.0000 0.73530  0.06300  0.87750  Biso   1.000  O
  O9       1.0000 0.65560  0.72000  0.73470  Biso   1.000  O
  N1       1.0000 0.80530  0.41100  0.23510  Biso   1.000  N
  H3       1.0000 0.83780  0.53720  0.26020  Biso   1.000  H
  N2       1.0000 0.60840  0.30600  0.74320  Biso   1.000  N
  H4       1.0000 0.59150  0.15830  0.72340  Biso   1.000  H
  C1       1.0000 0.64100  0.49800  0.71170  Biso   1.000  C
  C2       1.0000 0.65300  0.45200  0.64360  Biso   1.000  C
  O10      1.0000 0.00330  0.16500  0.21710  Biso   1.000  O
  C3       1.0000 0.76000  0.65900  0.06280  Biso   1.000  C
  C4       1.0000 0.60000  0.33300  0.81040  Biso   1.000  C
  H5       1.0000 0.57750  0.51280  0.81650  Biso   1.000  H
  O11      1.0000 0.68900  0.07600  0.22540  Biso   1.000  O
  C5       1.0000 0.82400  0.40300  0.17000  Biso   1.000  C
  H6       1.0000 0.77030  0.27500  0.14440  Biso   1.000  H
  C6       1.0000 0.50900  0.16500  0.89710  Biso   1.000  C
  C7       1.0000 0.79700  0.66700  0.13600  Biso   1.000  C
  H7       1.0000 0.73650  0.74980  0.15260  Biso   1.000  H
  H8       1.0000 0.86630  0.77500  0.14850  Biso   1.000  H
  C8       1.0000 0.50500  0.15800  0.82250  Biso   1.000  C
  H9       1.0000 0.51630  0.98120  0.80900  Biso   1.000  H
  H10      1.0000 0.42950  0.21830  0.79720  Biso   1.000  H
  C9       1.0000 0.68200  0.39300  0.51730  Biso   1.000  C
  C10      1.0000 0.70200  0.36300  0.45150  Biso   1.000  C
  C11      1.0000 0.73000  0.29700  0.32680  Biso   1.000  C
  C12      1.0000 0.60000  0.25300  0.60640  Biso   1.000  C
  H11      1.0000 0.55430  0.13550  0.62300  Biso   1.000  H
  C13      1.0000 0.71400  0.28600  0.85700  Biso   1.000  C
  C14      1.0000 0.74800  0.25900  0.25860  Biso   1.000  C
  C15      1.0000 0.73000  0.58900  0.55730  Biso   1.000  C
  H12      1.0000 0.77690  0.70690  0.54160  Biso   1.000  H
  C16      1.0000 0.61400  0.22700  0.54390  Biso   1.000  C
  H13      1.0000 0.57710  0.09030  0.51800  Biso   1.000  H
  C17      1.0000 0.71600  0.62400  0.61880  Biso   1.000  C
  H14      1.0000 0.74900  0.76620  0.64380  Biso   1.000  H
  C18      1.0000 0.94900  0.32000  0.16840  Biso   1.000  C
  C19      1.0000 0.62100  0.26500  0.40700  Biso   1.000  C
  H15      1.0000 0.55200  0.21610  0.41740  Biso   1.000  H
  C20      1.0000 0.63300  0.22700  0.34120  Biso   1.000  C
  H16      1.0000 0.57260  0.15500  0.30900  Biso   1.000  H
  C21      1.0000 0.82100  0.40600  0.37500  Biso   1.000  C
  H17      1.0000 0.89010  0.45390  0.36430  Biso   1.000  H
  C22      1.0000 0.81100  0.44100  0.43690  Biso   1.000  C
  H18      1.0000 0.87080  0.51280  0.46920  Biso   1.000  H
  C23      1.0000 0.72900  0.53900  0.35170  Biso   1.000  C
  H19      1.0000 0.73650  0.68430  0.32640  Biso   1.000  H
  C24      1.0000 0.71700  0.56500  0.41700  Biso   1.000  C
  H20      1.0000 0.72030  0.73050  0.43520  Biso   1.000  H
  C25      1.0000 0.66800  0.11900  0.41700  Biso   1.000  C
  H21      1.0000 0.63560  0.98520  0.43660  Biso   1.000  H
  C26      1.0000 0.68500  0.09200  0.35750  Biso   1.000  C
  H22      1.0000 0.66710  0.93460  0.33520  Biso   1.000  H
  Na5      1.0000 0.59340  0.17000  0.03160  Biso   1.000  Na
  Na6      1.0000 0.33590  0.21400  0.06870  Biso   1.000  Na
  Na7      1.0000 0.11490  0.65100  0.97580  Biso   1.000  Na
  Na8      1.0000 0.17620  0.31300  0.18540  Biso   1.000  Na
  O12      1.0000 0.25340  0.95900  0.96830  Biso   1.000  O
  O13      1.0000 0.49990  0.47100  0.07450  Biso   1.000  O
  O14      1.0000 0.25890  0.37800  0.96360  Biso   1.000  O
  O15      1.0000 0.01940  0.80600  0.05280  Biso   1.000  O
  H23      1.0000 0.07840  0.86060  0.09130  Biso   1.000  H
  H24      1.0000 0.97850  0.66030  0.06650  Biso   1.000  H
  O16      1.0000 0.01640  0.85300  0.87950  Biso   1.000  O
  O17      1.0000 0.47910  0.89600  0.07940  Biso   1.000  O
  O18      1.0000 0.22060  0.97300  0.12690  Biso   1.000  O
  O19      1.0000 0.26470  0.56300  0.12250  Biso   1.000  O
  O20      1.0000 0.34440  0.22000  0.26530  Biso   1.000  O
  N3       1.0000 0.19470  0.91100  0.76490  Biso   1.000  N
  H25      1.0000 0.16220  0.03720  0.73980  Biso   1.000  H
  N4       1.0000 0.39160  0.80600  0.25680  Biso   1.000  N
  H26      1.0000 0.40850  0.65830  0.27660  Biso   1.000  H
  C27      1.0000 0.35900  0.99800  0.28830  Biso   1.000  C
  C28      1.0000 0.34700  0.95200  0.35640  Biso   1.000  C
  O21      1.0000 0.99670  0.66500  0.78290  Biso   1.000  O
  C29      1.0000 0.24000  0.15900  0.93720  Biso   1.000  C
  C30      1.0000 0.40000  0.83300  0.18960  Biso   1.000  C
  H27      1.0000 0.42250  0.01280  0.18350  Biso   1.000  H
  O22      1.0000 0.31100  0.57600  0.77460  Biso   1.000  O
  C31      1.0000 0.17600  0.90300  0.83000  Biso   1.000  C
  H28      1.0000 0.22970  0.77500  0.85560  Biso   1.000  H
  C32      1.0000 0.49100  0.66500  0.10290  Biso   1.000  C
  C33      1.0000 0.20300  0.16700  0.86400  Biso   1.000  C
  H29      1.0000 0.26350  0.24980  0.84740  Biso   1.000  H
  H30      1.0000 0.13370  0.27500  0.85150  Biso   1.000  H
  C34      1.0000 0.49500  0.65800  0.17750  Biso   1.000  C
  H31      1.0000 0.48370  0.48120  0.19100  Biso   1.000  H
  H32      1.0000 0.57050  0.71830  0.20280  Biso   1.000  H
  C35      1.0000 0.31800  0.89300  0.48270  Biso   1.000  C
  C36      1.0000 0.29800  0.86300  0.54850  Biso   1.000  C
  C37      1.0000 0.27000  0.79700  0.67320  Biso   1.000  C
  C38      1.0000 0.40000  0.75300  0.39360  Biso   1.000  C
  H33      1.0000 0.44570  0.63550  0.37700  Biso   1.000  H
  C39      1.0000 0.28600  0.78600  0.14300  Biso   1.000  C
  C40      1.0000 0.25200  0.75900  0.74140  Biso   1.000  C
  C41      1.0000 0.27000  0.08900  0.44270  Biso   1.000  C
  H34      1.0000 0.22310  0.20690  0.45840  Biso   1.000  H
  C42      1.0000 0.38600  0.72700  0.45610  Biso   1.000  C
  H35      1.0000 0.42290  0.59030  0.48200  Biso   1.000  H
  C43      1.0000 0.28400  0.12400  0.38120  Biso   1.000  C
  H36      1.0000 0.25100  0.26620  0.35620  Biso   1.000  H
  C44      1.0000 0.05100  0.82000  0.83160  Biso   1.000  C
  C45      1.0000 0.37900  0.76500  0.59300  Biso   1.000  C
  H37      1.0000 0.44800  0.71610  0.58260  Biso   1.000  H
  C46      1.0000 0.36700  0.72700  0.65880  Biso   1.000  C
  H38      1.0000 0.42740  0.65500  0.69100  Biso   1.000  H
  C47      1.0000 0.17900  0.90600  0.62500  Biso   1.000  C
  H39      1.0000 0.10990  0.95390  0.63570  Biso   1.000  H
  C48      1.0000 0.18900  0.94100  0.56310  Biso   1.000  C
  H40      1.0000 0.12920  0.01280  0.53080  Biso   1.000  H
  C49      1.0000 0.27100  0.03900  0.64830  Biso   1.000  C
  H41      1.0000 0.26350  0.18430  0.67360  Biso   1.000  H
  C50      1.0000 0.28300  0.06500  0.58300  Biso   1.000  C
  H42      1.0000 0.27970  0.23050  0.56480  Biso   1.000  H
  C51      1.0000 0.33200  0.61900  0.58300  Biso   1.000  C
  H43      1.0000 0.36440  0.48520  0.56340  Biso   1.000  H
  C52      1.0000 0.31500  0.59200  0.64250  Biso   1.000  C
  H44      1.0000 0.33290  0.43460  0.66480  Biso   1.000  H
