data_image0
_cell_length_a       9.4533
_cell_length_b       18.614
_cell_length_c       19.976
_cell_angle_alpha    68.27
_cell_angle_beta     82.61
_cell_angle_gamma    82.18

_symmetry_space_group_name_H-M    "P 1"
_symmetry_int_tables_number       1

loop_
  _symmetry_equiv_pos_as_xyz
  'x, y, z'

loop_
  _atom_site_label
  _atom_site_occupancy
  _atom_site_fract_x
  _atom_site_fract_y
  _atom_site_fract_z
  _atom_site_thermal_displace_type
  _atom_site_B_iso_or_equiv
  _atom_site_type_symbol
  C1       1.0000 0.02650  0.31970  0.34880  Biso   1.000  C
  C2       1.0000 0.05660  0.26370  0.42370  Biso   1.000  C
  C3       1.0000 0.03090  0.28600  0.48250  Biso   1.000  C
  H1       1.0000 0.99460  0.33810  0.47600  Biso   1.000  H
  C4       1.0000 0.05660  0.23410  0.55150  Biso   1.000  C
  C5       1.0000 0.04100  0.24700  0.61900  Biso   1.000  C
  O1       1.0000 0.04900  0.18500  0.68520  Biso   1.000  O
  O2       1.0000 0.01000  0.31880  0.61400  Biso   1.000  O
  C6       1.0000 0.11060  0.18820  0.43210  Biso   1.000  C
  H2       1.0000 0.13420  0.17310  0.39120  Biso   1.000  H
  C7       1.0000 0.10930  0.15890  0.56000  Biso   1.000  C
  H3       1.0000 0.13180  0.12320  0.60640  Biso   1.000  H
  C8       1.0000 0.12980  0.13480  0.50130  Biso   1.000  C
  C9       1.0000 0.22900  0.03400  0.45490  Biso   1.000  C
  H4       1.0000 0.29920  0.06780  0.42070  Biso   1.000  H
  H5       1.0000 0.14470  0.03710  0.42900  Biso   1.000  H
  C10      1.0000 0.29500  0.95210  0.48390  Biso   1.000  C
  C11      1.0000 0.45900  0.93800  0.49300  Biso   1.000  C
  H6       1.0000 0.52140  0.97770  0.48240  Biso   1.000  H
  C12      1.0000 0.23400  0.89300  0.49300  Biso   1.000  C
  H7       1.0000 0.15200  0.89760  0.46830  Biso   1.000  H
  C13      1.0000 0.49800  0.86000  0.51800  Biso   1.000  C
  H8       1.0000 0.59870  0.84540  0.51640  Biso   1.000  H
  C14      1.0000 0.41650  0.80220  0.54300  Biso   1.000  C
  C15      1.0000 0.28400  0.81980  0.54000  Biso   1.000  C
  H9       1.0000 0.21860  0.78370  0.56880  Biso   1.000  H
  C16      1.0000 0.25860  0.42080  0.17790  Biso   1.000  C
  C17      1.0000 0.37000  0.47300  0.16800  Biso   1.000  C
  C18      1.0000 0.50910  0.44350  0.18480  Biso   1.000  C
  H10      1.0000 0.53270  0.38890  0.20080  Biso   1.000  H
  C19      1.0000 0.61600  0.49130  0.17900  Biso   1.000  C
  C20      1.0000 0.33900  0.55490  0.14260  Biso   1.000  C
  H11      1.0000 0.24520  0.57710  0.12980  Biso   1.000  H
  C21      1.0000 0.76000  0.46110  0.19790  Biso   1.000  C
  O3       1.0000 0.03910  0.29260  0.29960  Biso   1.000  O
  O4       1.0000 0.99350  0.38940  0.34210  Biso   1.000  O
  O5       1.0000 0.18700  0.05870  0.51490  Biso   1.000  O
  C22      1.0000 0.49250  0.71920  0.57680  Biso   1.000  C
  H12      1.0000 0.57830  0.71110  0.54530  Biso   1.000  H
  H13      1.0000 0.52260  0.71090  0.62500  Biso   1.000  H
  O6       1.0000 0.12290  0.44740  0.18630  Biso   1.000  O
  O7       1.0000 0.28830  0.35490  0.17950  Biso   1.000  O
  O8       1.0000 0.80650  0.39190  0.19840  Biso   1.000  O
  O9       1.0000 0.83030  0.50300  0.21540  Biso   1.000  O
  C23      1.0000 0.58070  0.57150  0.15280  Biso   1.000  C
  C24      1.0000 0.44220  0.60230  0.13620  Biso   1.000  C
  O10      1.0000 0.65300  0.64000  0.13800  Biso   1.000  O
  Zn1      1.0000 0.01452  0.35778  0.19738  Biso   1.000  Zn
  Zn2      1.0000 0.00925  0.50161  0.25834  Biso   1.000  Zn
  C25      1.0000 0.41270  0.80810  0.10910  Biso   1.000  C
  C26      1.0000 0.21200  0.90700  0.08400  Biso   1.000  C
  H14      1.0000 0.13390  0.92380  0.11130  Biso   1.000  H
  C27      1.0000 0.46700  0.86900  0.01600  Biso   1.000  C
  H15      1.0000 0.54620  0.85320  0.98880  Biso   1.000  H
  C28      1.0000 0.39800  0.93100  0.99200  Biso   1.000  C
  H16      1.0000 0.43930  0.96700  0.94850  Biso   1.000  H
  C29      1.0000 0.26500  0.95620  0.01880  Biso   1.000  C
  C30      1.0000 0.18300  0.03180  0.98780  Biso   1.000  C
  H17      1.0000 0.23270  0.06230  0.94130  Biso   1.000  H
  H18      1.0000 0.08750  0.02350  0.97780  Biso   1.000  H
  C31      1.0000 0.27000  0.83600  0.10800  Biso   1.000  C
  H19      1.0000 0.20460  0.79710  0.12760  Biso   1.000  H
  C32      1.0000 0.11420  0.15270  0.01090  Biso   1.000  C
  C33      1.0000 0.09680  0.18950  0.06310  Biso   1.000  C
  H20      1.0000 0.11410  0.16030  0.11210  Biso   1.000  H
  C34      1.0000 0.09410  0.19280  0.94190  Biso   1.000  C
  H21      1.0000 0.11290  0.16780  0.90750  Biso   1.000  H
  C35      1.0000 0.05450  0.26830  0.04130  Biso   1.000  C
  C36      1.0000 0.04540  0.27150  0.91980  Biso   1.000  C
  C37      1.0000 0.03370  0.31100  0.96940  Biso   1.000  C
  H22      1.0000 0.01190  0.36570  0.95350  Biso   1.000  H
  C38      1.0000 0.01690  0.31390  0.84340  Biso   1.000  C
  C39      1.0000 0.03790  0.30790  0.09470  Biso   1.000  C
  C40      1.0000 0.49460  0.73290  0.11850  Biso   1.000  C
  H23      1.0000 0.57770  0.73940  0.08190  Biso   1.000  H
  H24      1.0000 0.53070  0.71030  0.16710  Biso   1.000  H
  O11      1.0000 0.16430  0.07400  0.03400  Biso   1.000  O
  O12      1.0000 0.02650  0.27780  0.80100  Biso   1.000  O
  O13      1.0000 0.98010  0.38660  0.82420  Biso   1.000  O
  O14      1.0000 0.02690  0.38140  0.07380  Biso   1.000  O
  O15      1.0000 0.03600  0.26650  0.16240  Biso   1.000  O
  C41      1.0000 0.32410  0.53900  0.62530  Biso   1.000  C
  H25      1.0000 0.22980  0.55970  0.61230  Biso   1.000  H
  C42      1.0000 0.59780  0.47750  0.66490  Biso   1.000  C
  C43      1.0000 0.35640  0.46080  0.65540  Biso   1.000  C
  C44      1.0000 0.49330  0.42880  0.67450  Biso   1.000  C
  H26      1.0000 0.51480  0.37400  0.69390  Biso   1.000  H
  C45      1.0000 0.24280  0.40630  0.67100  Biso   1.000  C
  C46      1.0000 0.74730  0.44930  0.68640  Biso   1.000  C
  C47      1.0000 0.43300  0.58980  0.61330  Biso   1.000  C
  C48      1.0000 0.56680  0.55810  0.63640  Biso   1.000  C
  O16      1.0000 0.82100  0.49790  0.69160  Biso   1.000  O
  O17      1.0000 0.78810  0.37730  0.69970  Biso   1.000  O
  O18      1.0000 0.11060  0.43560  0.67120  Biso   1.000  O
  O19      1.0000 0.27330  0.33630  0.68440  Biso   1.000  O
  Zn3      1.0000 0.99978  0.33967  0.70035  Biso   1.000  Zn
  H27      1.0000 0.63780  0.59110  0.63280  Biso   1.000  H
  C49      1.0000 0.20800  0.88330  0.13830  Biso   1.000  C
  H28      1.0000 0.11250  0.88390  0.16000  Biso   1.000  H
  C50      1.0000 0.47300  0.87570  0.08500  Biso   1.000  C
  H29      1.0000 0.57090  0.87440  0.06650  Biso   1.000  H
  C51      1.0000 0.40900  0.94490  0.08480  Biso   1.000  C
  H30      1.0000 0.46050  0.98960  0.06660  Biso   1.000  H
  C52      1.0000 0.27000  0.95040  0.11060  Biso   1.000  C
  C53      1.0000 0.18600  0.02770  0.10670  Biso   1.000  C
  H31      1.0000 0.09220  0.01800  0.13530  Biso   1.000  H
  H32      1.0000 0.23930  0.05530  0.12770  Biso   1.000  H
  C54      1.0000 0.27570  0.81530  0.13660  Biso   1.000  C
  H33      1.0000 0.22460  0.77050  0.15560  Biso   1.000  H
  O20      1.0000 0.40040  0.68230  0.11010  Biso   1.000  O
  C55      1.0000 0.02000  0.28500  0.60640  Biso   1.000  C
  O21      1.0000 0.03000  0.23650  0.66980  Biso   1.000  O
  O22      1.0000 0.01200  0.35520  0.58470  Biso   1.000  O
  C56      1.0000 0.40900  0.92600  0.45670  Biso   1.000  C
  H34      1.0000 0.44890  0.96210  0.41340  Biso   1.000  H
  C57      1.0000 0.48000  0.85700  0.47900  Biso   1.000  C
  H35      1.0000 0.56700  0.84450  0.45390  Biso   1.000  H
  O23      1.0000 0.38870  0.66690  0.58280  Biso   1.000  O
  O24      1.0000 0.64100  0.65900  0.63000  Biso   1.000  O
  C58      1.0000 0.21900  0.89570  0.55380  Biso   1.000  C
  H36      1.0000 0.12810  0.91370  0.57140  Biso   1.000  H
  C59      1.0000 0.28000  0.81600  0.59400  Biso   1.000  C
  H37      1.0000 0.24590  0.78090  0.64030  Biso   1.000  H
  H38      1.0000 0.65220  0.60530  0.14640  Biso   1.000  H
  C60      1.0000 0.97350  0.68030  0.65120  Biso   1.000  C
  C61      1.0000 0.94340  0.73630  0.57630  Biso   1.000  C
  C62      1.0000 0.96910  0.71400  0.51750  Biso   1.000  C
  H39      1.0000 0.00540  0.66190  0.52400  Biso   1.000  H
  C63      1.0000 0.94340  0.76590  0.44850  Biso   1.000  C
  C64      1.0000 0.95900  0.75300  0.38100  Biso   1.000  C
  O25      1.0000 0.95100  0.81500  0.31480  Biso   1.000  O
  O26      1.0000 0.99000  0.68120  0.38600  Biso   1.000  O
  C65      1.0000 0.88940  0.81180  0.56790  Biso   1.000  C
  H40      1.0000 0.86580  0.82690  0.60880  Biso   1.000  H
  C66      1.0000 0.89070  0.84110  0.44000  Biso   1.000  C
  H41      1.0000 0.86820  0.87680  0.39360  Biso   1.000  H
  C67      1.0000 0.87020  0.86520  0.49870  Biso   1.000  C
  C68      1.0000 0.77100  0.96600  0.54510  Biso   1.000  C
  H42      1.0000 0.70080  0.93220  0.57930  Biso   1.000  H
  H43      1.0000 0.85530  0.96290  0.57100  Biso   1.000  H
  C69      1.0000 0.70500  0.04790  0.51610  Biso   1.000  C
  C70      1.0000 0.54100  0.06200  0.50700  Biso   1.000  C
  H44      1.0000 0.47860  0.02230  0.51760  Biso   1.000  H
  C71      1.0000 0.76600  0.10700  0.50700  Biso   1.000  C
  H45      1.0000 0.84800  0.10240  0.53170  Biso   1.000  H
  C72      1.0000 0.50200  0.14000  0.48200  Biso   1.000  C
  H46      1.0000 0.40130  0.15460  0.48360  Biso   1.000  H
  C73      1.0000 0.58350  0.19780  0.45700  Biso   1.000  C
  C74      1.0000 0.71600  0.18020  0.46000  Biso   1.000  C
  H47      1.0000 0.78140  0.21630  0.43120  Biso   1.000  H
  C75      1.0000 0.74140  0.57920  0.82210  Biso   1.000  C
  C76      1.0000 0.63000  0.52700  0.83200  Biso   1.000  C
  C77      1.0000 0.49090  0.55650  0.81520  Biso   1.000  C
  H48      1.0000 0.46730  0.61110  0.79920  Biso   1.000  H
  C78      1.0000 0.38400  0.50870  0.82100  Biso   1.000  C
  C79      1.0000 0.66100  0.44510  0.85740  Biso   1.000  C
  H49      1.0000 0.75480  0.42290  0.87020  Biso   1.000  H
  C80      1.0000 0.24000  0.53890  0.80210  Biso   1.000  C
  O27      1.0000 0.96090  0.70740  0.70040  Biso   1.000  O
  O28      1.0000 0.00650  0.61060  0.65790  Biso   1.000  O
  O29      1.0000 0.81300  0.94130  0.48510  Biso   1.000  O
  C81      1.0000 0.50750  0.28080  0.42320  Biso   1.000  C
  H50      1.0000 0.42170  0.28890  0.45470  Biso   1.000  H
  H51      1.0000 0.47740  0.28910  0.37500  Biso   1.000  H
  O30      1.0000 0.87710  0.55260  0.81370  Biso   1.000  O
  O31      1.0000 0.71170  0.64510  0.82050  Biso   1.000  O
  O32      1.0000 0.19350  0.60810  0.80160  Biso   1.000  O
  O33      1.0000 0.16970  0.49700  0.78460  Biso   1.000  O
  C82      1.0000 0.41930  0.42850  0.84720  Biso   1.000  C
  C83      1.0000 0.55780  0.39770  0.86380  Biso   1.000  C
  O34      1.0000 0.34700  0.36000  0.86200  Biso   1.000  O
  Zn4      1.0000 0.98548  0.64222  0.80262  Biso   1.000  Zn
  Zn5      1.0000 0.99075  0.49839  0.74166  Biso   1.000  Zn
  C84      1.0000 0.58730  0.19190  0.89090  Biso   1.000  C
  C85      1.0000 0.78800  0.09300  0.91600  Biso   1.000  C
  H52      1.0000 0.86610  0.07620  0.88870  Biso   1.000  H
  C86      1.0000 0.53300  0.13100  0.98400  Biso   1.000  C
  H53      1.0000 0.45380  0.14680  0.01120  Biso   1.000  H
  C87      1.0000 0.60200  0.06900  0.00800  Biso   1.000  C
  H54      1.0000 0.56070  0.03300  0.05150  Biso   1.000  H
  C88      1.0000 0.73500  0.04380  0.98120  Biso   1.000  C
  C89      1.0000 0.81700  0.96820  0.01220  Biso   1.000  C
  H55      1.0000 0.76730  0.93770  0.05870  Biso   1.000  H
  H56      1.0000 0.91250  0.97650  0.02220  Biso   1.000  H
  C90      1.0000 0.73000  0.16400  0.89200  Biso   1.000  C
  H57      1.0000 0.79540  0.20290  0.87240  Biso   1.000  H
  C91      1.0000 0.88580  0.84730  0.98910  Biso   1.000  C
  C92      1.0000 0.90320  0.81050  0.93690  Biso   1.000  C
  H58      1.0000 0.88590  0.83970  0.88790  Biso   1.000  H
  C93      1.0000 0.90590  0.80720  0.05810  Biso   1.000  C
  H59      1.0000 0.88710  0.83220  0.09250  Biso   1.000  H
  C94      1.0000 0.94550  0.73170  0.95870  Biso   1.000  C
  C95      1.0000 0.95460  0.72850  0.08020  Biso   1.000  C
  C96      1.0000 0.96630  0.68900  0.03060  Biso   1.000  C
  H60      1.0000 0.98810  0.63430  0.04650  Biso   1.000  H
  C97      1.0000 0.98310  0.68610  0.15660  Biso   1.000  C
  C98      1.0000 0.96210  0.69210  0.90530  Biso   1.000  C
  C99      1.0000 0.50540  0.26710  0.88150  Biso   1.000  C
  H61      1.0000 0.42230  0.26060  0.91810  Biso   1.000  H
  H62      1.0000 0.46930  0.28970  0.83290  Biso   1.000  H
  O35      1.0000 0.83570  0.92600  0.96600  Biso   1.000  O
  O36      1.0000 0.97350  0.72220  0.19900  Biso   1.000  O
  O37      1.0000 0.01990  0.61340  0.17580  Biso   1.000  O
  O38      1.0000 0.97310  0.61860  0.92620  Biso   1.000  O
  O39      1.0000 0.96400  0.73350  0.83760  Biso   1.000  O
  C100     1.0000 0.67590  0.46100  0.37470  Biso   1.000  C
  H63      1.0000 0.77020  0.44030  0.38770  Biso   1.000  H
  C101     1.0000 0.40220  0.52250  0.33510  Biso   1.000  C
  C102     1.0000 0.64360  0.53920  0.34460  Biso   1.000  C
  C103     1.0000 0.50670  0.57120  0.32550  Biso   1.000  C
  H64      1.0000 0.48520  0.62600  0.30610  Biso   1.000  H
  C104     1.0000 0.75720  0.59370  0.32900  Biso   1.000  C
  C105     1.0000 0.25270  0.55070  0.31360  Biso   1.000  C
  C106     1.0000 0.56700  0.41020  0.38670  Biso   1.000  C
  C107     1.0000 0.43320  0.44190  0.36360  Biso   1.000  C
  O40      1.0000 0.17900  0.50210  0.30840  Biso   1.000  O
  O41      1.0000 0.21190  0.62270  0.30030  Biso   1.000  O
  O42      1.0000 0.88940  0.56440  0.32880  Biso   1.000  O
  O43      1.0000 0.72670  0.66370  0.31560  Biso   1.000  O
  Zn6      1.0000 0.00022  0.66033  0.29965  Biso   1.000  Zn
  H65      1.0000 0.36220  0.40890  0.36720  Biso   1.000  H
  C108     1.0000 0.79200  0.11670  0.86170  Biso   1.000  C
  H66      1.0000 0.88750  0.11610  0.84000  Biso   1.000  H
  C109     1.0000 0.52700  0.12430  0.91500  Biso   1.000  C
  H67      1.0000 0.42910  0.12560  0.93350  Biso   1.000  H
  C110     1.0000 0.59100  0.05510  0.91520  Biso   1.000  C
  H68      1.0000 0.53950  0.01040  0.93340  Biso   1.000  H
  C111     1.0000 0.73000  0.04960  0.88940  Biso   1.000  C
  C112     1.0000 0.81400  0.97230  0.89330  Biso   1.000  C
  H69      1.0000 0.90780  0.98200  0.86470  Biso   1.000  H
  H70      1.0000 0.76070  0.94470  0.87230  Biso   1.000  H
  C113     1.0000 0.72430  0.18470  0.86340  Biso   1.000  C
  H71      1.0000 0.77540  0.22950  0.84440  Biso   1.000  H
  O44      1.0000 0.59960  0.31770  0.88990  Biso   1.000  O
  C114     1.0000 0.98000  0.71500  0.39360  Biso   1.000  C
  O45      1.0000 0.97000  0.76350  0.33020  Biso   1.000  O
  O46      1.0000 0.98800  0.64480  0.41530  Biso   1.000  O
  C115     1.0000 0.59100  0.07400  0.54330  Biso   1.000  C
  H72      1.0000 0.55110  0.03790  0.58660  Biso   1.000  H
  C116     1.0000 0.52000  0.14300  0.52100  Biso   1.000  C
  H73      1.0000 0.43300  0.15550  0.54610  Biso   1.000  H
  O47      1.0000 0.61130  0.33310  0.41720  Biso   1.000  O
  O48      1.0000 0.35900  0.34100  0.37000  Biso   1.000  O
  C117     1.0000 0.78100  0.10430  0.44620  Biso   1.000  C
  H74      1.0000 0.87190  0.08630  0.42860  Biso   1.000  H
  C118     1.0000 0.72000  0.18400  0.40600  Biso   1.000  C
  H75      1.0000 0.75410  0.21910  0.35970  Biso   1.000  H
  H76      1.0000 0.34780  0.39470  0.85360  Biso   1.000  H
