data_image0
_cell_length_a       20.5262
_cell_length_b       20.5262
_cell_length_c       20.152
_cell_angle_alpha    90
_cell_angle_beta     90
_cell_angle_gamma    120

_symmetry_space_group_name_H-M    "P 1"
_symmetry_int_tables_number       1

loop_
  _symmetry_equiv_pos_as_xyz
  'x, y, z'

loop_
  _atom_site_label
  _atom_site_occupancy
  _atom_site_fract_x
  _atom_site_fract_y
  _atom_site_fract_z
  _atom_site_thermal_displace_type
  _atom_site_B_iso_or_equiv
  _atom_site_type_symbol
  C1       1.0000 0.16770  0.30040  0.11100  Biso   1.000  C
  C2       1.0000 0.17820  0.34410  0.05580  Biso   1.000  C
  H1       1.0000 0.14730  0.32300  0.01690  Biso   1.000  H
  C3       1.0000 0.22990  0.42040  0.05980  Biso   1.000  C
  C4       1.0000 0.27080  0.45330  0.11620  Biso   1.000  C
  H2       1.0000 0.31210  0.50440  0.11530  Biso   1.000  H
  C5       1.0000 0.25860  0.40710  0.16950  Biso   1.000  C
  H3       1.0000 0.28130  0.42980  0.21140  Biso   1.000  H
  C6       1.0000 0.20400  0.33240  0.16840  Biso   1.000  C
  H4       1.0000 0.20390  0.30000  0.20300  Biso   1.000  H
  N1       1.0000 0.12240  0.22200  0.10633  Biso   1.000  N
  C7       1.0000 0.10070  0.17310  0.15770  Biso   1.000  C
  H5       1.0000 0.11160  0.18790  0.20360  Biso   1.000  H
  N2       1.0000 0.06290  0.10510  0.13646  Biso   1.000  N
  C8       1.0000 0.09640  0.17700  0.05151  Biso   1.000  C
  H6       1.0000 0.11150  0.19410  0.00660  Biso   1.000  H
  N3       1.0000 0.24620  0.46440  0.00070  Biso   1.000  N
  C9       1.0000 0.24870  0.43920  0.93760  Biso   1.000  C
  H7       1.0000 0.24200  0.39030  0.92750  Biso   1.000  H
  N4       1.0000 0.27130  0.49240  0.89390  Biso   1.000  N
  H8       1.0000 0.26540  0.56720  0.02630  Biso   1.000  H
  C10      1.0000 0.83437  0.63373  0.44433  Biso   1.000  C
  C11      1.0000 0.84487  0.67743  0.38913  Biso   1.000  C
  H9       1.0000 0.81397  0.65633  0.35023  Biso   1.000  H
  C12      1.0000 0.89657  0.75373  0.39313  Biso   1.000  C
  C13      1.0000 0.93747  0.78663  0.44953  Biso   1.000  C
  H10      1.0000 0.97877  0.83773  0.44863  Biso   1.000  H
  C14      1.0000 0.92527  0.74043  0.50283  Biso   1.000  C
  H11      1.0000 0.94797  0.76313  0.54473  Biso   1.000  H
  C15      1.0000 0.87067  0.66573  0.50173  Biso   1.000  C
  H12      1.0000 0.87057  0.63333  0.53633  Biso   1.000  H
  N5       1.0000 0.78907  0.55533  0.43966  Biso   1.000  N
  C16      1.0000 0.76737  0.50643  0.49103  Biso   1.000  C
  H13      1.0000 0.77827  0.52123  0.53693  Biso   1.000  H
  N6       1.0000 0.72957  0.43843  0.46979  Biso   1.000  N
  C17      1.0000 0.76307  0.51033  0.38484  Biso   1.000  C
  H14      1.0000 0.77817  0.52743  0.33993  Biso   1.000  H
  N7       1.0000 0.91287  0.79773  0.33403  Biso   1.000  N
  C18      1.0000 0.91537  0.77253  0.27093  Biso   1.000  C
  H15      1.0000 0.90867  0.72363  0.26083  Biso   1.000  H
  N8       1.0000 0.93797  0.82573  0.22723  Biso   1.000  N
  H16      1.0000 0.93207  0.90053  0.35963  Biso   1.000  H
  C19      1.0000 0.50103  0.96707  0.77767  Biso   1.000  C
  C20      1.0000 0.51153  0.01077  0.72247  Biso   1.000  C
  H17      1.0000 0.48063  0.98967  0.68357  Biso   1.000  H
  C21      1.0000 0.56323  0.08707  0.72647  Biso   1.000  C
  C22      1.0000 0.60413  0.11997  0.78287  Biso   1.000  C
  H18      1.0000 0.64543  0.17107  0.78197  Biso   1.000  H
  C23      1.0000 0.59193  0.07377  0.83617  Biso   1.000  C
  H19      1.0000 0.61463  0.09647  0.87807  Biso   1.000  H
  C24      1.0000 0.53733  0.99907  0.83507  Biso   1.000  C
  H20      1.0000 0.53723  0.96667  0.86967  Biso   1.000  H
  N9       1.0000 0.45573  0.88867  0.77300  Biso   1.000  N
  C25      1.0000 0.43403  0.83977  0.82437  Biso   1.000  C
  H21      1.0000 0.44493  0.85457  0.87027  Biso   1.000  H
  N10      1.0000 0.39623  0.77177  0.80313  Biso   1.000  N
  C26      1.0000 0.42973  0.84367  0.71818  Biso   1.000  C
  H22      1.0000 0.44483  0.86077  0.67327  Biso   1.000  H
  N11      1.0000 0.57953  0.13107  0.66737  Biso   1.000  N
  C27      1.0000 0.58203  0.10587  0.60427  Biso   1.000  C
  H23      1.0000 0.57533  0.05697  0.59417  Biso   1.000  H
  N12      1.0000 0.60463  0.15907  0.56057  Biso   1.000  N
  H24      1.0000 0.59873  0.23387  0.69297  Biso   1.000  H
  C28      1.0000 0.69960  0.86730  0.11100  Biso   1.000  C
  C29      1.0000 0.65590  0.83410  0.05580  Biso   1.000  C
  H25      1.0000 0.67700  0.82430  0.01690  Biso   1.000  H
  C30      1.0000 0.57960  0.80950  0.05980  Biso   1.000  C
  C31      1.0000 0.54670  0.81750  0.11620  Biso   1.000  C
  H26      1.0000 0.49560  0.80770  0.11530  Biso   1.000  H
  C32      1.0000 0.59290  0.85150  0.16950  Biso   1.000  C
  H27      1.0000 0.57020  0.85150  0.21140  Biso   1.000  H
  C33      1.0000 0.66760  0.87160  0.16840  Biso   1.000  C
  H28      1.0000 0.70000  0.90390  0.20300  Biso   1.000  H
  N13      1.0000 0.77800  0.90040  0.10633  Biso   1.000  N
  C34      1.0000 0.82690  0.92760  0.15770  Biso   1.000  C
  H29      1.0000 0.81210  0.92370  0.20360  Biso   1.000  H
  N14      1.0000 0.89490  0.95780  0.13646  Biso   1.000  N
  C35      1.0000 0.82300  0.91940  0.05151  Biso   1.000  C
  H30      1.0000 0.80590  0.91740  0.00660  Biso   1.000  H
  N15      1.0000 0.53560  0.78180  0.00070  Biso   1.000  N
  C36      1.0000 0.56080  0.80950  0.93760  Biso   1.000  C
  H31      1.0000 0.60970  0.85170  0.92750  Biso   1.000  H
  N16      1.0000 0.50760  0.77890  0.89390  Biso   1.000  N
  H32      1.0000 0.43280  0.69820  0.02630  Biso   1.000  H
  C37      1.0000 0.36627  0.20063  0.44433  Biso   1.000  C
  C38      1.0000 0.32257  0.16743  0.38913  Biso   1.000  C
  H33      1.0000 0.34367  0.15763  0.35023  Biso   1.000  H
  C39      1.0000 0.24627  0.14283  0.39313  Biso   1.000  C
  C40      1.0000 0.21337  0.15083  0.44953  Biso   1.000  C
  H34      1.0000 0.16227  0.14103  0.44863  Biso   1.000  H
  C41      1.0000 0.25957  0.18483  0.50283  Biso   1.000  C
  H35      1.0000 0.23687  0.18483  0.54473  Biso   1.000  H
  C42      1.0000 0.33427  0.20493  0.50173  Biso   1.000  C
  H36      1.0000 0.36667  0.23723  0.53633  Biso   1.000  H
  N17      1.0000 0.44467  0.23373  0.43966  Biso   1.000  N
  C43      1.0000 0.49357  0.26093  0.49103  Biso   1.000  C
  H37      1.0000 0.47877  0.25703  0.53693  Biso   1.000  H
  N18      1.0000 0.56157  0.29113  0.46979  Biso   1.000  N
  C44      1.0000 0.48967  0.25273  0.38484  Biso   1.000  C
  H38      1.0000 0.47257  0.25073  0.33993  Biso   1.000  H
  N19      1.0000 0.20227  0.11513  0.33403  Biso   1.000  N
  C45      1.0000 0.22747  0.14283  0.27093  Biso   1.000  C
  H39      1.0000 0.27637  0.18503  0.26083  Biso   1.000  H
  N20      1.0000 0.17427  0.11223  0.22723  Biso   1.000  N
  H40      1.0000 0.09947  0.03153  0.35963  Biso   1.000  H
  C46      1.0000 0.03293  0.53397  0.77767  Biso   1.000  C
  C47      1.0000 0.98923  0.50077  0.72247  Biso   1.000  C
  H41      1.0000 0.01033  0.49097  0.68357  Biso   1.000  H
  C48      1.0000 0.91293  0.47617  0.72647  Biso   1.000  C
  C49      1.0000 0.88003  0.48417  0.78287  Biso   1.000  C
  H42      1.0000 0.82893  0.47437  0.78197  Biso   1.000  H
  C50      1.0000 0.92623  0.51817  0.83617  Biso   1.000  C
  H43      1.0000 0.90353  0.51817  0.87807  Biso   1.000  H
  C51      1.0000 0.00093  0.53827  0.83507  Biso   1.000  C
  H44      1.0000 0.03333  0.57057  0.86967  Biso   1.000  H
  N21      1.0000 0.11133  0.56707  0.77300  Biso   1.000  N
  C52      1.0000 0.16023  0.59427  0.82437  Biso   1.000  C
  H45      1.0000 0.14543  0.59037  0.87027  Biso   1.000  H
  N22      1.0000 0.22823  0.62447  0.80313  Biso   1.000  N
  C53      1.0000 0.15633  0.58607  0.71818  Biso   1.000  C
  H46      1.0000 0.13923  0.58407  0.67327  Biso   1.000  H
  N23      1.0000 0.86893  0.44847  0.66737  Biso   1.000  N
  C54      1.0000 0.89413  0.47617  0.60427  Biso   1.000  C
  H47      1.0000 0.94303  0.51837  0.59417  Biso   1.000  H
  N24      1.0000 0.84093  0.44557  0.56057  Biso   1.000  N
  H48      1.0000 0.76613  0.36487  0.69297  Biso   1.000  H
  C55      1.0000 0.13270  0.83230  0.11100  Biso   1.000  C
  C56      1.0000 0.16590  0.82180  0.05580  Biso   1.000  C
  H49      1.0000 0.17570  0.85270  0.01690  Biso   1.000  H
  C57      1.0000 0.19050  0.77010  0.05980  Biso   1.000  C
  C58      1.0000 0.18250  0.72920  0.11620  Biso   1.000  C
  H50      1.0000 0.19230  0.68790  0.11530  Biso   1.000  H
  C59      1.0000 0.14850  0.74140  0.16950  Biso   1.000  C
  H51      1.0000 0.14850  0.71870  0.21140  Biso   1.000  H
  C60      1.0000 0.12840  0.79600  0.16840  Biso   1.000  C
  H52      1.0000 0.09610  0.79610  0.20300  Biso   1.000  H
  N25      1.0000 0.09960  0.87760  0.10633  Biso   1.000  N
  C61      1.0000 0.07240  0.89930  0.15770  Biso   1.000  C
  H53      1.0000 0.07630  0.88840  0.20360  Biso   1.000  H
  N26      1.0000 0.04220  0.93710  0.13646  Biso   1.000  N
  C62      1.0000 0.08060  0.90360  0.05151  Biso   1.000  C
  H54      1.0000 0.08260  0.88850  0.00660  Biso   1.000  H
  N27      1.0000 0.21820  0.75380  0.00070  Biso   1.000  N
  C63      1.0000 0.19050  0.75130  0.93760  Biso   1.000  C
  H55      1.0000 0.14830  0.75800  0.92750  Biso   1.000  H
  N28      1.0000 0.22110  0.72870  0.89390  Biso   1.000  N
  H56      1.0000 0.30180  0.73460  0.02630  Biso   1.000  H
  C64      1.0000 0.79937  0.16563  0.44433  Biso   1.000  C
  C65      1.0000 0.83257  0.15513  0.38913  Biso   1.000  C
  H57      1.0000 0.84237  0.18603  0.35023  Biso   1.000  H
  C66      1.0000 0.85717  0.10343  0.39313  Biso   1.000  C
  C67      1.0000 0.84917  0.06253  0.44953  Biso   1.000  C
  H58      1.0000 0.85897  0.02123  0.44863  Biso   1.000  H
  C68      1.0000 0.81517  0.07473  0.50283  Biso   1.000  C
  H59      1.0000 0.81517  0.05203  0.54473  Biso   1.000  H
  C69      1.0000 0.79507  0.12933  0.50173  Biso   1.000  C
  H60      1.0000 0.76277  0.12943  0.53633  Biso   1.000  H
  N29      1.0000 0.76627  0.21093  0.43966  Biso   1.000  N
  C70      1.0000 0.73907  0.23263  0.49103  Biso   1.000  C
  H61      1.0000 0.74297  0.22173  0.53693  Biso   1.000  H
  N30      1.0000 0.70887  0.27043  0.46979  Biso   1.000  N
  C71      1.0000 0.74727  0.23693  0.38484  Biso   1.000  C
  H62      1.0000 0.74927  0.22183  0.33993  Biso   1.000  H
  N31      1.0000 0.88487  0.08713  0.33403  Biso   1.000  N
  C72      1.0000 0.85717  0.08463  0.27093  Biso   1.000  C
  H63      1.0000 0.81497  0.09133  0.26083  Biso   1.000  H
  N32      1.0000 0.88777  0.06203  0.22723  Biso   1.000  N
  H64      1.0000 0.96847  0.06793  0.35963  Biso   1.000  H
  C73      1.0000 0.46603  0.49897  0.77767  Biso   1.000  C
  C74      1.0000 0.49923  0.48847  0.72247  Biso   1.000  C
  H65      1.0000 0.50903  0.51937  0.68357  Biso   1.000  H
  C75      1.0000 0.52383  0.43677  0.72647  Biso   1.000  C
  C76      1.0000 0.51583  0.39587  0.78287  Biso   1.000  C
  H66      1.0000 0.52563  0.35457  0.78197  Biso   1.000  H
  C77      1.0000 0.48183  0.40807  0.83617  Biso   1.000  C
  H67      1.0000 0.48183  0.38537  0.87807  Biso   1.000  H
  C78      1.0000 0.46173  0.46267  0.83507  Biso   1.000  C
  H68      1.0000 0.42943  0.46277  0.86967  Biso   1.000  H
  N33      1.0000 0.43293  0.54427  0.77300  Biso   1.000  N
  C79      1.0000 0.40573  0.56597  0.82437  Biso   1.000  C
  H69      1.0000 0.40963  0.55507  0.87027  Biso   1.000  H
  N34      1.0000 0.37553  0.60377  0.80313  Biso   1.000  N
  C80      1.0000 0.41393  0.57027  0.71818  Biso   1.000  C
  H70      1.0000 0.41593  0.55517  0.67327  Biso   1.000  H
  N35      1.0000 0.55153  0.42047  0.66737  Biso   1.000  N
  C81      1.0000 0.52383  0.41797  0.60427  Biso   1.000  C
  H71      1.0000 0.48163  0.42467  0.59417  Biso   1.000  H
  N36      1.0000 0.55443  0.39537  0.56057  Biso   1.000  N
  H72      1.0000 0.63513  0.40127  0.69297  Biso   1.000  H
  C82      1.0000 0.30040  0.16770  0.88900  Biso   1.000  C
  C83      1.0000 0.34410  0.17820  0.94420  Biso   1.000  C
  H73      1.0000 0.32300  0.14730  0.98310  Biso   1.000  H
  C84      1.0000 0.42040  0.22990  0.94020  Biso   1.000  C
  C85      1.0000 0.45330  0.27080  0.88380  Biso   1.000  C
  H74      1.0000 0.50440  0.31210  0.88470  Biso   1.000  H
  C86      1.0000 0.40710  0.25860  0.83050  Biso   1.000  C
  H75      1.0000 0.42980  0.28130  0.78860  Biso   1.000  H
  C87      1.0000 0.33240  0.20400  0.83160  Biso   1.000  C
  H76      1.0000 0.30000  0.20390  0.79700  Biso   1.000  H
  N37      1.0000 0.22200  0.12240  0.89367  Biso   1.000  N
  C88      1.0000 0.17310  0.10070  0.84230  Biso   1.000  C
  H77      1.0000 0.18790  0.11160  0.79640  Biso   1.000  H
  N38      1.0000 0.10510  0.06290  0.86354  Biso   1.000  N
  C89      1.0000 0.17700  0.09640  0.94849  Biso   1.000  C
  H78      1.0000 0.19410  0.11150  0.99340  Biso   1.000  H
  N39      1.0000 0.46440  0.24620  0.99930  Biso   1.000  N
  C90      1.0000 0.43920  0.24870  0.06240  Biso   1.000  C
  H79      1.0000 0.39030  0.24200  0.07250  Biso   1.000  H
  N40      1.0000 0.49240  0.27130  0.10610  Biso   1.000  N
  H80      1.0000 0.56720  0.26540  0.97370  Biso   1.000  H
  C91      1.0000 0.96707  0.50103  0.22233  Biso   1.000  C
  C92      1.0000 0.01077  0.51153  0.27753  Biso   1.000  C
  H81      1.0000 0.98967  0.48063  0.31643  Biso   1.000  H
  C93      1.0000 0.08707  0.56323  0.27353  Biso   1.000  C
  C94      1.0000 0.11997  0.60413  0.21713  Biso   1.000  C
  H82      1.0000 0.17107  0.64543  0.21803  Biso   1.000  H
  C95      1.0000 0.07377  0.59193  0.16383  Biso   1.000  C
  H83      1.0000 0.09647  0.61463  0.12193  Biso   1.000  H
  C96      1.0000 0.99907  0.53733  0.16493  Biso   1.000  C
  H84      1.0000 0.96667  0.53723  0.13033  Biso   1.000  H
  N41      1.0000 0.88867  0.45573  0.22700  Biso   1.000  N
  C97      1.0000 0.83977  0.43403  0.17563  Biso   1.000  C
  H85      1.0000 0.85457  0.44493  0.12973  Biso   1.000  H
  N42      1.0000 0.77177  0.39623  0.19687  Biso   1.000  N
  C98      1.0000 0.84367  0.42973  0.28182  Biso   1.000  C
  H86      1.0000 0.86077  0.44483  0.32673  Biso   1.000  H
  N43      1.0000 0.13107  0.57953  0.33263  Biso   1.000  N
  C99      1.0000 0.10587  0.58203  0.39573  Biso   1.000  C
  H87      1.0000 0.05697  0.57533  0.40583  Biso   1.000  H
  N44      1.0000 0.15907  0.60463  0.43943  Biso   1.000  N
  H88      1.0000 0.23387  0.59873  0.30703  Biso   1.000  H
  C100     1.0000 0.63373  0.83437  0.55567  Biso   1.000  C
  C101     1.0000 0.67743  0.84487  0.61087  Biso   1.000  C
  H89      1.0000 0.65633  0.81397  0.64977  Biso   1.000  H
  C102     1.0000 0.75373  0.89657  0.60687  Biso   1.000  C
  C103     1.0000 0.78663  0.93747  0.55047  Biso   1.000  C
  H90      1.0000 0.83773  0.97877  0.55137  Biso   1.000  H
  C104     1.0000 0.74043  0.92527  0.49717  Biso   1.000  C
  H91      1.0000 0.76313  0.94797  0.45527  Biso   1.000  H
  C105     1.0000 0.66573  0.87067  0.49827  Biso   1.000  C
  H92      1.0000 0.63333  0.87057  0.46367  Biso   1.000  H
  N45      1.0000 0.55533  0.78907  0.56034  Biso   1.000  N
  C106     1.0000 0.50643  0.76737  0.50897  Biso   1.000  C
  H93      1.0000 0.52123  0.77827  0.46307  Biso   1.000  H
  N46      1.0000 0.43843  0.72957  0.53021  Biso   1.000  N
  C107     1.0000 0.51033  0.76307  0.61516  Biso   1.000  C
  H94      1.0000 0.52743  0.77817  0.66007  Biso   1.000  H
  N47      1.0000 0.79773  0.91287  0.66597  Biso   1.000  N
  C108     1.0000 0.77253  0.91537  0.72907  Biso   1.000  C
  H95      1.0000 0.72363  0.90867  0.73917  Biso   1.000  H
  N48      1.0000 0.82573  0.93797  0.77277  Biso   1.000  N
  H96      1.0000 0.90053  0.93207  0.64037  Biso   1.000  H
  C109     1.0000 0.86730  0.69960  0.88900  Biso   1.000  C
  C110     1.0000 0.83410  0.65590  0.94420  Biso   1.000  C
  H97      1.0000 0.82430  0.67700  0.98310  Biso   1.000  H
  C111     1.0000 0.80950  0.57960  0.94020  Biso   1.000  C
  C112     1.0000 0.81750  0.54670  0.88380  Biso   1.000  C
  H98      1.0000 0.80770  0.49560  0.88470  Biso   1.000  H
  C113     1.0000 0.85150  0.59290  0.83050  Biso   1.000  C
  H99      1.0000 0.85150  0.57020  0.78860  Biso   1.000  H
  C114     1.0000 0.87160  0.66760  0.83160  Biso   1.000  C
  H100     1.0000 0.90390  0.70000  0.79700  Biso   1.000  H
  N49      1.0000 0.90040  0.77800  0.89367  Biso   1.000  N
  C115     1.0000 0.92760  0.82690  0.84230  Biso   1.000  C
  H101     1.0000 0.92370  0.81210  0.79640  Biso   1.000  H
  N50      1.0000 0.95780  0.89490  0.86354  Biso   1.000  N
  C116     1.0000 0.91940  0.82300  0.94849  Biso   1.000  C
  H102     1.0000 0.91740  0.80590  0.99340  Biso   1.000  H
  N51      1.0000 0.78180  0.53560  0.99930  Biso   1.000  N
  C117     1.0000 0.80950  0.56080  0.06240  Biso   1.000  C
  H103     1.0000 0.85170  0.60970  0.07250  Biso   1.000  H
  N52      1.0000 0.77890  0.50760  0.10610  Biso   1.000  N
  H104     1.0000 0.69820  0.43280  0.97370  Biso   1.000  H
  C118     1.0000 0.53397  0.03293  0.22233  Biso   1.000  C
  C119     1.0000 0.50077  0.98923  0.27753  Biso   1.000  C
  H105     1.0000 0.49097  0.01033  0.31643  Biso   1.000  H
  C120     1.0000 0.47617  0.91293  0.27353  Biso   1.000  C
  C121     1.0000 0.48417  0.88003  0.21713  Biso   1.000  C
  H106     1.0000 0.47437  0.82893  0.21803  Biso   1.000  H
  C122     1.0000 0.51817  0.92623  0.16383  Biso   1.000  C
  H107     1.0000 0.51817  0.90353  0.12193  Biso   1.000  H
  C123     1.0000 0.53827  0.00093  0.16493  Biso   1.000  C
  H108     1.0000 0.57057  0.03333  0.13033  Biso   1.000  H
  N53      1.0000 0.56707  0.11133  0.22700  Biso   1.000  N
  C124     1.0000 0.59427  0.16023  0.17563  Biso   1.000  C
  H109     1.0000 0.59037  0.14543  0.12973  Biso   1.000  H
  N54      1.0000 0.62447  0.22823  0.19687  Biso   1.000  N
  C125     1.0000 0.58607  0.15633  0.28182  Biso   1.000  C
  H110     1.0000 0.58407  0.13923  0.32673  Biso   1.000  H
  N55      1.0000 0.44847  0.86893  0.33263  Biso   1.000  N
  C126     1.0000 0.47617  0.89413  0.39573  Biso   1.000  C
  H111     1.0000 0.51837  0.94303  0.40583  Biso   1.000  H
  N56      1.0000 0.44557  0.84093  0.43943  Biso   1.000  N
  H112     1.0000 0.36487  0.76613  0.30703  Biso   1.000  H
  C127     1.0000 0.20063  0.36627  0.55567  Biso   1.000  C
  C128     1.0000 0.16743  0.32257  0.61087  Biso   1.000  C
  H113     1.0000 0.15763  0.34367  0.64977  Biso   1.000  H
  C129     1.0000 0.14283  0.24627  0.60687  Biso   1.000  C
  C130     1.0000 0.15083  0.21337  0.55047  Biso   1.000  C
  H114     1.0000 0.14103  0.16227  0.55137  Biso   1.000  H
  C131     1.0000 0.18483  0.25957  0.49717  Biso   1.000  C
  H115     1.0000 0.18483  0.23687  0.45527  Biso   1.000  H
  C132     1.0000 0.20493  0.33427  0.49827  Biso   1.000  C
  H116     1.0000 0.23723  0.36667  0.46367  Biso   1.000  H
  N57      1.0000 0.23373  0.44467  0.56034  Biso   1.000  N
  C133     1.0000 0.26093  0.49357  0.50897  Biso   1.000  C
  H117     1.0000 0.25703  0.47877  0.46307  Biso   1.000  H
  N58      1.0000 0.29113  0.56157  0.53021  Biso   1.000  N
  C134     1.0000 0.25273  0.48967  0.61516  Biso   1.000  C
  H118     1.0000 0.25073  0.47257  0.66007  Biso   1.000  H
  N59      1.0000 0.11513  0.20227  0.66597  Biso   1.000  N
  C135     1.0000 0.14283  0.22747  0.72907  Biso   1.000  C
  H119     1.0000 0.18503  0.27637  0.73917  Biso   1.000  H
  N60      1.0000 0.11223  0.17427  0.77277  Biso   1.000  N
  H120     1.0000 0.03153  0.09947  0.64037  Biso   1.000  H
  C136     1.0000 0.83230  0.13270  0.88900  Biso   1.000  C
  C137     1.0000 0.82180  0.16590  0.94420  Biso   1.000  C
  H121     1.0000 0.85270  0.17570  0.98310  Biso   1.000  H
  C138     1.0000 0.77010  0.19050  0.94020  Biso   1.000  C
  C139     1.0000 0.72920  0.18250  0.88380  Biso   1.000  C
  H122     1.0000 0.68790  0.19230  0.88470  Biso   1.000  H
  C140     1.0000 0.74140  0.14850  0.83050  Biso   1.000  C
  H123     1.0000 0.71870  0.14850  0.78860  Biso   1.000  H
  C141     1.0000 0.79600  0.12840  0.83160  Biso   1.000  C
  H124     1.0000 0.79610  0.09610  0.79700  Biso   1.000  H
  N61      1.0000 0.87760  0.09960  0.89367  Biso   1.000  N
  C142     1.0000 0.89930  0.07240  0.84230  Biso   1.000  C
  H125     1.0000 0.88840  0.07630  0.79640  Biso   1.000  H
  N62      1.0000 0.93710  0.04220  0.86354  Biso   1.000  N
  C143     1.0000 0.90360  0.08060  0.94849  Biso   1.000  C
  H126     1.0000 0.88850  0.08260  0.99340  Biso   1.000  H
  N63      1.0000 0.75380  0.21820  0.99930  Biso   1.000  N
  C144     1.0000 0.75130  0.19050  0.06240  Biso   1.000  C
  H127     1.0000 0.75800  0.14830  0.07250  Biso   1.000  H
  N64      1.0000 0.72870  0.22110  0.10610  Biso   1.000  N
  H128     1.0000 0.73460  0.30180  0.97370  Biso   1.000  H
  C145     1.0000 0.49897  0.46603  0.22233  Biso   1.000  C
  C146     1.0000 0.48847  0.49923  0.27753  Biso   1.000  C
  H129     1.0000 0.51937  0.50903  0.31643  Biso   1.000  H
  C147     1.0000 0.43677  0.52383  0.27353  Biso   1.000  C
  C148     1.0000 0.39587  0.51583  0.21713  Biso   1.000  C
  H130     1.0000 0.35457  0.52563  0.21803  Biso   1.000  H
  C149     1.0000 0.40807  0.48183  0.16383  Biso   1.000  C
  H131     1.0000 0.38537  0.48183  0.12193  Biso   1.000  H
  C150     1.0000 0.46267  0.46173  0.16493  Biso   1.000  C
  H132     1.0000 0.46277  0.42943  0.13033  Biso   1.000  H
  N65      1.0000 0.54427  0.43293  0.22700  Biso   1.000  N
  C151     1.0000 0.56597  0.40573  0.17563  Biso   1.000  C
  H133     1.0000 0.55507  0.40963  0.12973  Biso   1.000  H
  N66      1.0000 0.60377  0.37553  0.19687  Biso   1.000  N
  C152     1.0000 0.57027  0.41393  0.28182  Biso   1.000  C
  H134     1.0000 0.55517  0.41593  0.32673  Biso   1.000  H
  N67      1.0000 0.42047  0.55153  0.33263  Biso   1.000  N
  C153     1.0000 0.41797  0.52383  0.39573  Biso   1.000  C
  H135     1.0000 0.42467  0.48163  0.40583  Biso   1.000  H
  N68      1.0000 0.39537  0.55443  0.43943  Biso   1.000  N
  H136     1.0000 0.40127  0.63513  0.30703  Biso   1.000  H
  C154     1.0000 0.16563  0.79937  0.55567  Biso   1.000  C
  C155     1.0000 0.15513  0.83257  0.61087  Biso   1.000  C
  H137     1.0000 0.18603  0.84237  0.64977  Biso   1.000  H
  C156     1.0000 0.10343  0.85717  0.60687  Biso   1.000  C
  C157     1.0000 0.06253  0.84917  0.55047  Biso   1.000  C
  H138     1.0000 0.02123  0.85897  0.55137  Biso   1.000  H
  C158     1.0000 0.07473  0.81517  0.49717  Biso   1.000  C
  H139     1.0000 0.05203  0.81517  0.45527  Biso   1.000  H
  C159     1.0000 0.12933  0.79507  0.49827  Biso   1.000  C
  H140     1.0000 0.12943  0.76277  0.46367  Biso   1.000  H
  N69      1.0000 0.21093  0.76627  0.56034  Biso   1.000  N
  C160     1.0000 0.23263  0.73907  0.50897  Biso   1.000  C
  H141     1.0000 0.22173  0.74297  0.46307  Biso   1.000  H
  N70      1.0000 0.27043  0.70887  0.53021  Biso   1.000  N
  C161     1.0000 0.23693  0.74727  0.61516  Biso   1.000  C
  H142     1.0000 0.22183  0.74927  0.66007  Biso   1.000  H
  N71      1.0000 0.08713  0.88487  0.66597  Biso   1.000  N
  C162     1.0000 0.08463  0.85717  0.72907  Biso   1.000  C
  H143     1.0000 0.09133  0.81497  0.73917  Biso   1.000  H
  N72      1.0000 0.06203  0.88777  0.77277  Biso   1.000  N
  H144     1.0000 0.06793  0.96847  0.64037  Biso   1.000  H
  C163     1.0000 0.83230  0.69960  0.88900  Biso   1.000  C
  C164     1.0000 0.82180  0.65590  0.94420  Biso   1.000  C
  H145     1.0000 0.85270  0.67700  0.98310  Biso   1.000  H
  C165     1.0000 0.77010  0.57960  0.94020  Biso   1.000  C
  C166     1.0000 0.72920  0.54670  0.88380  Biso   1.000  C
  H146     1.0000 0.68790  0.49560  0.88470  Biso   1.000  H
  C167     1.0000 0.74140  0.59290  0.83050  Biso   1.000  C
  H147     1.0000 0.71870  0.57020  0.78860  Biso   1.000  H
  C168     1.0000 0.79600  0.66760  0.83160  Biso   1.000  C
  H148     1.0000 0.79610  0.70000  0.79700  Biso   1.000  H
  N73      1.0000 0.87760  0.77800  0.89367  Biso   1.000  N
  C169     1.0000 0.89930  0.82690  0.84230  Biso   1.000  C
  H149     1.0000 0.88840  0.81210  0.79640  Biso   1.000  H
  N74      1.0000 0.93710  0.89490  0.86354  Biso   1.000  N
  C170     1.0000 0.90360  0.82300  0.94849  Biso   1.000  C
  H150     1.0000 0.88850  0.80590  0.99340  Biso   1.000  H
  N75      1.0000 0.75380  0.53560  0.99930  Biso   1.000  N
  C171     1.0000 0.75130  0.56080  0.06240  Biso   1.000  C
  H151     1.0000 0.75800  0.60970  0.07250  Biso   1.000  H
  N76      1.0000 0.72870  0.50760  0.10610  Biso   1.000  N
  H152     1.0000 0.73460  0.43280  0.97370  Biso   1.000  H
  C172     1.0000 0.49897  0.03293  0.22233  Biso   1.000  C
  C173     1.0000 0.48847  0.98923  0.27753  Biso   1.000  C
  H153     1.0000 0.51937  0.01033  0.31643  Biso   1.000  H
  C174     1.0000 0.43677  0.91293  0.27353  Biso   1.000  C
  C175     1.0000 0.39587  0.88003  0.21713  Biso   1.000  C
  H154     1.0000 0.35457  0.82893  0.21803  Biso   1.000  H
  C176     1.0000 0.40807  0.92623  0.16383  Biso   1.000  C
  H155     1.0000 0.38537  0.90353  0.12193  Biso   1.000  H
  C177     1.0000 0.46267  0.00093  0.16493  Biso   1.000  C
  H156     1.0000 0.46277  0.03333  0.13033  Biso   1.000  H
  N77      1.0000 0.54427  0.11133  0.22700  Biso   1.000  N
  C178     1.0000 0.56597  0.16023  0.17563  Biso   1.000  C
  H157     1.0000 0.55507  0.14543  0.12973  Biso   1.000  H
  N78      1.0000 0.60377  0.22823  0.19687  Biso   1.000  N
  C179     1.0000 0.57027  0.15633  0.28182  Biso   1.000  C
  H158     1.0000 0.55517  0.13923  0.32673  Biso   1.000  H
  N79      1.0000 0.42047  0.86893  0.33263  Biso   1.000  N
  C180     1.0000 0.41797  0.89413  0.39573  Biso   1.000  C
  H159     1.0000 0.42467  0.94303  0.40583  Biso   1.000  H
  N80      1.0000 0.39537  0.84093  0.43943  Biso   1.000  N
  H160     1.0000 0.40127  0.76613  0.30703  Biso   1.000  H
  C181     1.0000 0.16563  0.36627  0.55567  Biso   1.000  C
  C182     1.0000 0.15513  0.32257  0.61087  Biso   1.000  C
  H161     1.0000 0.18603  0.34367  0.64977  Biso   1.000  H
  C183     1.0000 0.10343  0.24627  0.60687  Biso   1.000  C
  C184     1.0000 0.06253  0.21337  0.55047  Biso   1.000  C
  H162     1.0000 0.02123  0.16227  0.55137  Biso   1.000  H
  C185     1.0000 0.07473  0.25957  0.49717  Biso   1.000  C
  H163     1.0000 0.05203  0.23687  0.45527  Biso   1.000  H
  C186     1.0000 0.12933  0.33427  0.49827  Biso   1.000  C
  H164     1.0000 0.12943  0.36667  0.46367  Biso   1.000  H
  N81      1.0000 0.21093  0.44467  0.56034  Biso   1.000  N
  C187     1.0000 0.23263  0.49357  0.50897  Biso   1.000  C
  H165     1.0000 0.22173  0.47877  0.46307  Biso   1.000  H
  N82      1.0000 0.27043  0.56157  0.53021  Biso   1.000  N
  C188     1.0000 0.23693  0.48967  0.61516  Biso   1.000  C
  H166     1.0000 0.22183  0.47257  0.66007  Biso   1.000  H
  N83      1.0000 0.08713  0.20227  0.66597  Biso   1.000  N
  C189     1.0000 0.08463  0.22747  0.72907  Biso   1.000  C
  H167     1.0000 0.09133  0.27637  0.73917  Biso   1.000  H
  N84      1.0000 0.06203  0.17427  0.77277  Biso   1.000  N
  H168     1.0000 0.06793  0.09947  0.64037  Biso   1.000  H
  C190     1.0000 0.30040  0.13270  0.88900  Biso   1.000  C
  C191     1.0000 0.34410  0.16590  0.94420  Biso   1.000  C
  H169     1.0000 0.32300  0.17570  0.98310  Biso   1.000  H
  C192     1.0000 0.42040  0.19050  0.94020  Biso   1.000  C
  C193     1.0000 0.45330  0.18250  0.88380  Biso   1.000  C
  H170     1.0000 0.50440  0.19230  0.88470  Biso   1.000  H
  C194     1.0000 0.40710  0.14850  0.83050  Biso   1.000  C
  H171     1.0000 0.42980  0.14850  0.78860  Biso   1.000  H
  C195     1.0000 0.33240  0.12840  0.83160  Biso   1.000  C
  H172     1.0000 0.30000  0.09610  0.79700  Biso   1.000  H
  N85      1.0000 0.22200  0.09960  0.89367  Biso   1.000  N
  C196     1.0000 0.17310  0.07240  0.84230  Biso   1.000  C
  H173     1.0000 0.18790  0.07630  0.79640  Biso   1.000  H
  N86      1.0000 0.10510  0.04220  0.86354  Biso   1.000  N
  C197     1.0000 0.17700  0.08060  0.94849  Biso   1.000  C
  H174     1.0000 0.19410  0.08260  0.99340  Biso   1.000  H
  N87      1.0000 0.46440  0.21820  0.99930  Biso   1.000  N
  C198     1.0000 0.43920  0.19050  0.06240  Biso   1.000  C
  H175     1.0000 0.39030  0.14830  0.07250  Biso   1.000  H
  N88      1.0000 0.49240  0.22110  0.10610  Biso   1.000  N
  H176     1.0000 0.56720  0.30180  0.97370  Biso   1.000  H
  C199     1.0000 0.96707  0.46603  0.22233  Biso   1.000  C
  C200     1.0000 0.01077  0.49923  0.27753  Biso   1.000  C
  H177     1.0000 0.98967  0.50903  0.31643  Biso   1.000  H
  C201     1.0000 0.08707  0.52383  0.27353  Biso   1.000  C
  C202     1.0000 0.11997  0.51583  0.21713  Biso   1.000  C
  H178     1.0000 0.17107  0.52563  0.21803  Biso   1.000  H
  C203     1.0000 0.07377  0.48183  0.16383  Biso   1.000  C
  H179     1.0000 0.09647  0.48183  0.12193  Biso   1.000  H
  C204     1.0000 0.99907  0.46173  0.16493  Biso   1.000  C
  H180     1.0000 0.96667  0.42943  0.13033  Biso   1.000  H
  N89      1.0000 0.88867  0.43293  0.22700  Biso   1.000  N
  C205     1.0000 0.83977  0.40573  0.17563  Biso   1.000  C
  H181     1.0000 0.85457  0.40963  0.12973  Biso   1.000  H
  N90      1.0000 0.77177  0.37553  0.19687  Biso   1.000  N
  C206     1.0000 0.84367  0.41393  0.28182  Biso   1.000  C
  H182     1.0000 0.86077  0.41593  0.32673  Biso   1.000  H
  N91      1.0000 0.13107  0.55153  0.33263  Biso   1.000  N
  C207     1.0000 0.10587  0.52383  0.39573  Biso   1.000  C
  H183     1.0000 0.05697  0.48163  0.40583  Biso   1.000  H
  N92      1.0000 0.15907  0.55443  0.43943  Biso   1.000  N
  H184     1.0000 0.23387  0.63513  0.30703  Biso   1.000  H
  C208     1.0000 0.63373  0.79937  0.55567  Biso   1.000  C
  C209     1.0000 0.67743  0.83257  0.61087  Biso   1.000  C
  H185     1.0000 0.65633  0.84237  0.64977  Biso   1.000  H
  C210     1.0000 0.75373  0.85717  0.60687  Biso   1.000  C
  C211     1.0000 0.78663  0.84917  0.55047  Biso   1.000  C
  H186     1.0000 0.83773  0.85897  0.55137  Biso   1.000  H
  C212     1.0000 0.74043  0.81517  0.49717  Biso   1.000  C
  H187     1.0000 0.76313  0.81517  0.45527  Biso   1.000  H
  C213     1.0000 0.66573  0.79507  0.49827  Biso   1.000  C
  H188     1.0000 0.63333  0.76277  0.46367  Biso   1.000  H
  N93      1.0000 0.55533  0.76627  0.56034  Biso   1.000  N
  C214     1.0000 0.50643  0.73907  0.50897  Biso   1.000  C
  H189     1.0000 0.52123  0.74297  0.46307  Biso   1.000  H
  N94      1.0000 0.43843  0.70887  0.53021  Biso   1.000  N
  C215     1.0000 0.51033  0.74727  0.61516  Biso   1.000  C
  H190     1.0000 0.52743  0.74927  0.66007  Biso   1.000  H
  N95      1.0000 0.79773  0.88487  0.66597  Biso   1.000  N
  C216     1.0000 0.77253  0.85717  0.72907  Biso   1.000  C
  H191     1.0000 0.72363  0.81497  0.73917  Biso   1.000  H
  N96      1.0000 0.82573  0.88777  0.77277  Biso   1.000  N
  H192     1.0000 0.90053  0.96847  0.64037  Biso   1.000  H
  C217     1.0000 0.86730  0.16770  0.88900  Biso   1.000  C
  C218     1.0000 0.83410  0.17820  0.94420  Biso   1.000  C
  H193     1.0000 0.82430  0.14730  0.98310  Biso   1.000  H
  C219     1.0000 0.80950  0.22990  0.94020  Biso   1.000  C
  C220     1.0000 0.81750  0.27080  0.88380  Biso   1.000  C
  H194     1.0000 0.80770  0.31210  0.88470  Biso   1.000  H
  C221     1.0000 0.85150  0.25860  0.83050  Biso   1.000  C
  H195     1.0000 0.85150  0.28130  0.78860  Biso   1.000  H
  C222     1.0000 0.87160  0.20400  0.83160  Biso   1.000  C
  H196     1.0000 0.90390  0.20390  0.79700  Biso   1.000  H
  N97      1.0000 0.90040  0.12240  0.89367  Biso   1.000  N
  C223     1.0000 0.92760  0.10070  0.84230  Biso   1.000  C
  H197     1.0000 0.92370  0.11160  0.79640  Biso   1.000  H
  N98      1.0000 0.95780  0.06290  0.86354  Biso   1.000  N
  C224     1.0000 0.91940  0.09640  0.94849  Biso   1.000  C
  H198     1.0000 0.91740  0.11150  0.99340  Biso   1.000  H
  N99      1.0000 0.78180  0.24620  0.99930  Biso   1.000  N
  C225     1.0000 0.80950  0.24870  0.06240  Biso   1.000  C
  H199     1.0000 0.85170  0.24200  0.07250  Biso   1.000  H
  N100     1.0000 0.77890  0.27130  0.10610  Biso   1.000  N
  H200     1.0000 0.69820  0.26540  0.97370  Biso   1.000  H
  C226     1.0000 0.53397  0.50103  0.22233  Biso   1.000  C
  C227     1.0000 0.50077  0.51153  0.27753  Biso   1.000  C
  H201     1.0000 0.49097  0.48063  0.31643  Biso   1.000  H
  C228     1.0000 0.47617  0.56323  0.27353  Biso   1.000  C
  C229     1.0000 0.48417  0.60413  0.21713  Biso   1.000  C
  H202     1.0000 0.47437  0.64543  0.21803  Biso   1.000  H
  C230     1.0000 0.51817  0.59193  0.16383  Biso   1.000  C
  H203     1.0000 0.51817  0.61463  0.12193  Biso   1.000  H
  C231     1.0000 0.53827  0.53733  0.16493  Biso   1.000  C
  H204     1.0000 0.57057  0.53723  0.13033  Biso   1.000  H
  N101     1.0000 0.56707  0.45573  0.22700  Biso   1.000  N
  C232     1.0000 0.59427  0.43403  0.17563  Biso   1.000  C
  H205     1.0000 0.59037  0.44493  0.12973  Biso   1.000  H
  N102     1.0000 0.62447  0.39623  0.19687  Biso   1.000  N
  C233     1.0000 0.58607  0.42973  0.28182  Biso   1.000  C
  H206     1.0000 0.58407  0.44483  0.32673  Biso   1.000  H
  N103     1.0000 0.44847  0.57953  0.33263  Biso   1.000  N
  C234     1.0000 0.47617  0.58203  0.39573  Biso   1.000  C
  H207     1.0000 0.51837  0.57533  0.40583  Biso   1.000  H
  N104     1.0000 0.44557  0.60463  0.43943  Biso   1.000  N
  H208     1.0000 0.36487  0.59873  0.30703  Biso   1.000  H
  C235     1.0000 0.20063  0.83437  0.55567  Biso   1.000  C
  C236     1.0000 0.16743  0.84487  0.61087  Biso   1.000  C
  H209     1.0000 0.15763  0.81397  0.64977  Biso   1.000  H
  C237     1.0000 0.14283  0.89657  0.60687  Biso   1.000  C
  C238     1.0000 0.15083  0.93747  0.55047  Biso   1.000  C
  H210     1.0000 0.14103  0.97877  0.55137  Biso   1.000  H
  C239     1.0000 0.18483  0.92527  0.49717  Biso   1.000  C
  H211     1.0000 0.18483  0.94797  0.45527  Biso   1.000  H
  C240     1.0000 0.20493  0.87067  0.49827  Biso   1.000  C
  H212     1.0000 0.23723  0.87057  0.46367  Biso   1.000  H
  N105     1.0000 0.23373  0.78907  0.56034  Biso   1.000  N
  C241     1.0000 0.26093  0.76737  0.50897  Biso   1.000  C
  H213     1.0000 0.25703  0.77827  0.46307  Biso   1.000  H
  N106     1.0000 0.29113  0.72957  0.53021  Biso   1.000  N
  C242     1.0000 0.25273  0.76307  0.61516  Biso   1.000  C
  H214     1.0000 0.25073  0.77817  0.66007  Biso   1.000  H
  N107     1.0000 0.11513  0.91287  0.66597  Biso   1.000  N
  C243     1.0000 0.14283  0.91537  0.72907  Biso   1.000  C
  H215     1.0000 0.18503  0.90867  0.73917  Biso   1.000  H
  N108     1.0000 0.11223  0.93797  0.77277  Biso   1.000  N
  H216     1.0000 0.03153  0.93207  0.64037  Biso   1.000  H
  C244     1.0000 0.69960  0.83230  0.11100  Biso   1.000  C
  C245     1.0000 0.65590  0.82180  0.05580  Biso   1.000  C
  H217     1.0000 0.67700  0.85270  0.01690  Biso   1.000  H
  C246     1.0000 0.57960  0.77010  0.05980  Biso   1.000  C
  C247     1.0000 0.54670  0.72920  0.11620  Biso   1.000  C
  H218     1.0000 0.49560  0.68790  0.11530  Biso   1.000  H
  C248     1.0000 0.59290  0.74140  0.16950  Biso   1.000  C
  H219     1.0000 0.57020  0.71870  0.21140  Biso   1.000  H
  C249     1.0000 0.66760  0.79600  0.16840  Biso   1.000  C
  H220     1.0000 0.70000  0.79610  0.20300  Biso   1.000  H
  N109     1.0000 0.77800  0.87760  0.10633  Biso   1.000  N
  C250     1.0000 0.82690  0.89930  0.15770  Biso   1.000  C
  H221     1.0000 0.81210  0.88840  0.20360  Biso   1.000  H
  N110     1.0000 0.89490  0.93710  0.13646  Biso   1.000  N
  C251     1.0000 0.82300  0.90360  0.05151  Biso   1.000  C
  H222     1.0000 0.80590  0.88850  0.00660  Biso   1.000  H
  N111     1.0000 0.53560  0.75380  0.00070  Biso   1.000  N
  C252     1.0000 0.56080  0.75130  0.93760  Biso   1.000  C
  H223     1.0000 0.60970  0.75800  0.92750  Biso   1.000  H
  N112     1.0000 0.50760  0.72870  0.89390  Biso   1.000  N
  H224     1.0000 0.43280  0.73460  0.02630  Biso   1.000  H
  C253     1.0000 0.36627  0.16563  0.44433  Biso   1.000  C
  C254     1.0000 0.32257  0.15513  0.38913  Biso   1.000  C
  H225     1.0000 0.34367  0.18603  0.35023  Biso   1.000  H
  C255     1.0000 0.24627  0.10343  0.39313  Biso   1.000  C
  C256     1.0000 0.21337  0.06253  0.44953  Biso   1.000  C
  H226     1.0000 0.16227  0.02123  0.44863  Biso   1.000  H
  C257     1.0000 0.25957  0.07473  0.50283  Biso   1.000  C
  H227     1.0000 0.23687  0.05203  0.54473  Biso   1.000  H
  C258     1.0000 0.33427  0.12933  0.50173  Biso   1.000  C
  H228     1.0000 0.36667  0.12943  0.53633  Biso   1.000  H
  N113     1.0000 0.44467  0.21093  0.43966  Biso   1.000  N
  C259     1.0000 0.49357  0.23263  0.49103  Biso   1.000  C
  H229     1.0000 0.47877  0.22173  0.53693  Biso   1.000  H
  N114     1.0000 0.56157  0.27043  0.46979  Biso   1.000  N
  C260     1.0000 0.48967  0.23693  0.38484  Biso   1.000  C
  H230     1.0000 0.47257  0.22183  0.33993  Biso   1.000  H
  N115     1.0000 0.20227  0.08713  0.33403  Biso   1.000  N
  C261     1.0000 0.22747  0.08463  0.27093  Biso   1.000  C
  H231     1.0000 0.27637  0.09133  0.26083  Biso   1.000  H
  N116     1.0000 0.17427  0.06203  0.22723  Biso   1.000  N
  H232     1.0000 0.09947  0.06793  0.35963  Biso   1.000  H
  C262     1.0000 0.03293  0.49897  0.77767  Biso   1.000  C
  C263     1.0000 0.98923  0.48847  0.72247  Biso   1.000  C
  H233     1.0000 0.01033  0.51937  0.68357  Biso   1.000  H
  C264     1.0000 0.91293  0.43677  0.72647  Biso   1.000  C
  C265     1.0000 0.88003  0.39587  0.78287  Biso   1.000  C
  H234     1.0000 0.82893  0.35457  0.78197  Biso   1.000  H
  C266     1.0000 0.92623  0.40807  0.83617  Biso   1.000  C
  H235     1.0000 0.90353  0.38537  0.87807  Biso   1.000  H
  C267     1.0000 0.00093  0.46267  0.83507  Biso   1.000  C
  H236     1.0000 0.03333  0.46277  0.86967  Biso   1.000  H
  N117     1.0000 0.11133  0.54427  0.77300  Biso   1.000  N
  C268     1.0000 0.16023  0.56597  0.82437  Biso   1.000  C
  H237     1.0000 0.14543  0.55507  0.87027  Biso   1.000  H
  N118     1.0000 0.22823  0.60377  0.80313  Biso   1.000  N
  C269     1.0000 0.15633  0.57027  0.71818  Biso   1.000  C
  H238     1.0000 0.13923  0.55517  0.67327  Biso   1.000  H
  N119     1.0000 0.86893  0.42047  0.66737  Biso   1.000  N
  C270     1.0000 0.89413  0.41797  0.60427  Biso   1.000  C
  H239     1.0000 0.94303  0.42467  0.59417  Biso   1.000  H
  N120     1.0000 0.84093  0.39537  0.56057  Biso   1.000  N
  H240     1.0000 0.76613  0.40127  0.69297  Biso   1.000  H
  C271     1.0000 0.13270  0.30040  0.11100  Biso   1.000  C
  C272     1.0000 0.16590  0.34410  0.05580  Biso   1.000  C
  H241     1.0000 0.17570  0.32300  0.01690  Biso   1.000  H
  C273     1.0000 0.19050  0.42040  0.05980  Biso   1.000  C
  C274     1.0000 0.18250  0.45330  0.11620  Biso   1.000  C
  H242     1.0000 0.19230  0.50440  0.11530  Biso   1.000  H
  C275     1.0000 0.14850  0.40710  0.16950  Biso   1.000  C
  H243     1.0000 0.14850  0.42980  0.21140  Biso   1.000  H
  C276     1.0000 0.12840  0.33240  0.16840  Biso   1.000  C
  H244     1.0000 0.09610  0.30000  0.20300  Biso   1.000  H
  N121     1.0000 0.09960  0.22200  0.10633  Biso   1.000  N
  C277     1.0000 0.07240  0.17310  0.15770  Biso   1.000  C
  H245     1.0000 0.07630  0.18790  0.20360  Biso   1.000  H
  N122     1.0000 0.04220  0.10510  0.13646  Biso   1.000  N
  C278     1.0000 0.08060  0.17700  0.05151  Biso   1.000  C
  H246     1.0000 0.08260  0.19410  0.00660  Biso   1.000  H
  N123     1.0000 0.21820  0.46440  0.00070  Biso   1.000  N
  C279     1.0000 0.19050  0.43920  0.93760  Biso   1.000  C
  H247     1.0000 0.14830  0.39030  0.92750  Biso   1.000  H
  N124     1.0000 0.22110  0.49240  0.89390  Biso   1.000  N
  H248     1.0000 0.30180  0.56720  0.02630  Biso   1.000  H
  C280     1.0000 0.79937  0.63373  0.44433  Biso   1.000  C
  C281     1.0000 0.83257  0.67743  0.38913  Biso   1.000  C
  H249     1.0000 0.84237  0.65633  0.35023  Biso   1.000  H
  C282     1.0000 0.85717  0.75373  0.39313  Biso   1.000  C
  C283     1.0000 0.84917  0.78663  0.44953  Biso   1.000  C
  H250     1.0000 0.85897  0.83773  0.44863  Biso   1.000  H
  C284     1.0000 0.81517  0.74043  0.50283  Biso   1.000  C
  H251     1.0000 0.81517  0.76313  0.54473  Biso   1.000  H
  C285     1.0000 0.79507  0.66573  0.50173  Biso   1.000  C
  H252     1.0000 0.76277  0.63333  0.53633  Biso   1.000  H
  N125     1.0000 0.76627  0.55533  0.43966  Biso   1.000  N
  C286     1.0000 0.73907  0.50643  0.49103  Biso   1.000  C
  H253     1.0000 0.74297  0.52123  0.53693  Biso   1.000  H
  N126     1.0000 0.70887  0.43843  0.46979  Biso   1.000  N
  C287     1.0000 0.74727  0.51033  0.38484  Biso   1.000  C
  H254     1.0000 0.74927  0.52743  0.33993  Biso   1.000  H
  N127     1.0000 0.88487  0.79773  0.33403  Biso   1.000  N
  C288     1.0000 0.85717  0.77253  0.27093  Biso   1.000  C
  H255     1.0000 0.81497  0.72363  0.26083  Biso   1.000  H
  N128     1.0000 0.88777  0.82573  0.22723  Biso   1.000  N
  H256     1.0000 0.96847  0.90053  0.35963  Biso   1.000  H
  C289     1.0000 0.46603  0.96707  0.77767  Biso   1.000  C
  C290     1.0000 0.49923  0.01077  0.72247  Biso   1.000  C
  H257     1.0000 0.50903  0.98967  0.68357  Biso   1.000  H
  C291     1.0000 0.52383  0.08707  0.72647  Biso   1.000  C
  C292     1.0000 0.51583  0.11997  0.78287  Biso   1.000  C
  H258     1.0000 0.52563  0.17107  0.78197  Biso   1.000  H
  C293     1.0000 0.48183  0.07377  0.83617  Biso   1.000  C
  H259     1.0000 0.48183  0.09647  0.87807  Biso   1.000  H
  C294     1.0000 0.46173  0.99907  0.83507  Biso   1.000  C
  H260     1.0000 0.42943  0.96667  0.86967  Biso   1.000  H
  N129     1.0000 0.43293  0.88867  0.77300  Biso   1.000  N
  C295     1.0000 0.40573  0.83977  0.82437  Biso   1.000  C
  H261     1.0000 0.40963  0.85457  0.87027  Biso   1.000  H
  N130     1.0000 0.37553  0.77177  0.80313  Biso   1.000  N
  C296     1.0000 0.41393  0.84367  0.71818  Biso   1.000  C
  H262     1.0000 0.41593  0.86077  0.67327  Biso   1.000  H
  N131     1.0000 0.55153  0.13107  0.66737  Biso   1.000  N
  C297     1.0000 0.52383  0.10587  0.60427  Biso   1.000  C
  H263     1.0000 0.48163  0.05697  0.59417  Biso   1.000  H
  N132     1.0000 0.55443  0.15907  0.56057  Biso   1.000  N
  H264     1.0000 0.63513  0.23387  0.69297  Biso   1.000  H
  C298     1.0000 0.16770  0.86730  0.11100  Biso   1.000  C
  C299     1.0000 0.17820  0.83410  0.05580  Biso   1.000  C
  H265     1.0000 0.14730  0.82430  0.01690  Biso   1.000  H
  C300     1.0000 0.22990  0.80950  0.05980  Biso   1.000  C
  C301     1.0000 0.27080  0.81750  0.11620  Biso   1.000  C
  H266     1.0000 0.31210  0.80770  0.11530  Biso   1.000  H
  C302     1.0000 0.25860  0.85150  0.16950  Biso   1.000  C
  H267     1.0000 0.28130  0.85150  0.21140  Biso   1.000  H
  C303     1.0000 0.20400  0.87160  0.16840  Biso   1.000  C
  H268     1.0000 0.20390  0.90390  0.20300  Biso   1.000  H
  N133     1.0000 0.12240  0.90040  0.10633  Biso   1.000  N
  C304     1.0000 0.10070  0.92760  0.15770  Biso   1.000  C
  H269     1.0000 0.11160  0.92370  0.20360  Biso   1.000  H
  N134     1.0000 0.06290  0.95780  0.13646  Biso   1.000  N
  C305     1.0000 0.09640  0.91940  0.05151  Biso   1.000  C
  H270     1.0000 0.11150  0.91740  0.00660  Biso   1.000  H
  N135     1.0000 0.24620  0.78180  0.00070  Biso   1.000  N
  C306     1.0000 0.24870  0.80950  0.93760  Biso   1.000  C
  H271     1.0000 0.24200  0.85170  0.92750  Biso   1.000  H
  N136     1.0000 0.27130  0.77890  0.89390  Biso   1.000  N
  H272     1.0000 0.26540  0.69820  0.02630  Biso   1.000  H
  C307     1.0000 0.83437  0.20063  0.44433  Biso   1.000  C
  C308     1.0000 0.84487  0.16743  0.38913  Biso   1.000  C
  H273     1.0000 0.81397  0.15763  0.35023  Biso   1.000  H
  C309     1.0000 0.89657  0.14283  0.39313  Biso   1.000  C
  C310     1.0000 0.93747  0.15083  0.44953  Biso   1.000  C
  H274     1.0000 0.97877  0.14103  0.44863  Biso   1.000  H
  C311     1.0000 0.92527  0.18483  0.50283  Biso   1.000  C
  H275     1.0000 0.94797  0.18483  0.54473  Biso   1.000  H
  C312     1.0000 0.87067  0.20493  0.50173  Biso   1.000  C
  H276     1.0000 0.87057  0.23723  0.53633  Biso   1.000  H
  N137     1.0000 0.78907  0.23373  0.43966  Biso   1.000  N
  C313     1.0000 0.76737  0.26093  0.49103  Biso   1.000  C
  H277     1.0000 0.77827  0.25703  0.53693  Biso   1.000  H
  N138     1.0000 0.72957  0.29113  0.46979  Biso   1.000  N
  C314     1.0000 0.76307  0.25273  0.38484  Biso   1.000  C
  H278     1.0000 0.77817  0.25073  0.33993  Biso   1.000  H
  N139     1.0000 0.91287  0.11513  0.33403  Biso   1.000  N
  C315     1.0000 0.91537  0.14283  0.27093  Biso   1.000  C
  H279     1.0000 0.90867  0.18503  0.26083  Biso   1.000  H
  N140     1.0000 0.93797  0.11223  0.22723  Biso   1.000  N
  H280     1.0000 0.93207  0.03153  0.35963  Biso   1.000  H
  C316     1.0000 0.50103  0.53397  0.77767  Biso   1.000  C
  C317     1.0000 0.51153  0.50077  0.72247  Biso   1.000  C
  H281     1.0000 0.48063  0.49097  0.68357  Biso   1.000  H
  C318     1.0000 0.56323  0.47617  0.72647  Biso   1.000  C
  C319     1.0000 0.60413  0.48417  0.78287  Biso   1.000  C
  H282     1.0000 0.64543  0.47437  0.78197  Biso   1.000  H
  C320     1.0000 0.59193  0.51817  0.83617  Biso   1.000  C
  H283     1.0000 0.61463  0.51817  0.87807  Biso   1.000  H
  C321     1.0000 0.53733  0.53827  0.83507  Biso   1.000  C
  H284     1.0000 0.53723  0.57057  0.86967  Biso   1.000  H
  N141     1.0000 0.45573  0.56707  0.77300  Biso   1.000  N
  C322     1.0000 0.43403  0.59427  0.82437  Biso   1.000  C
  H285     1.0000 0.44493  0.59037  0.87027  Biso   1.000  H
  N142     1.0000 0.39623  0.62447  0.80313  Biso   1.000  N
  C323     1.0000 0.42973  0.58607  0.71818  Biso   1.000  C
  H286     1.0000 0.44483  0.58407  0.67327  Biso   1.000  H
  N143     1.0000 0.57953  0.44847  0.66737  Biso   1.000  N
  C324     1.0000 0.58203  0.47617  0.60427  Biso   1.000  C
  H287     1.0000 0.57533  0.51837  0.59417  Biso   1.000  H
  N144     1.0000 0.60463  0.44557  0.56057  Biso   1.000  N
  H288     1.0000 0.59873  0.36487  0.69297  Biso   1.000  H
  Cd1      1.0000 0.00000  0.00000  0.00000  Biso   1.000  Cd
  Cd2      1.0000 0.66667  0.33333  0.33333  Biso   1.000  Cd
  Cd3      1.0000 0.33333  0.66667  0.66667  Biso   1.000  Cd
  Cd4      1.0000 0.00000  0.00000  0.20544  Biso   1.000  Cd
  Cd5      1.0000 0.66667  0.33333  0.53878  Biso   1.000  Cd
  Cd6      1.0000 0.33333  0.66667  0.87211  Biso   1.000  Cd
  Cd7      1.0000 0.00000  0.00000  0.79456  Biso   1.000  Cd
  Cd8      1.0000 0.66667  0.33333  0.12789  Biso   1.000  Cd
  Cd9      1.0000 0.33333  0.66667  0.46122  Biso   1.000  Cd
  N145     1.0000 0.05380  0.10759  0.06787  Biso   1.000  N
  N146     1.0000 0.27875  0.55750  0.93235  Biso   1.000  N
  C325     1.0000 0.26805  0.53610  0.99130  Biso   1.000  C
  N147     1.0000 0.72046  0.44092  0.40120  Biso   1.000  N
  N148     1.0000 0.94542  0.89083  0.26568  Biso   1.000  N
  C326     1.0000 0.93472  0.86943  0.32463  Biso   1.000  C
  N149     1.0000 0.38713  0.77426  0.73454  Biso   1.000  N
  N150     1.0000 0.61208  0.22417  0.59902  Biso   1.000  N
  C327     1.0000 0.60138  0.20277  0.65797  Biso   1.000  C
  N151     1.0000 0.89241  0.94620  0.06787  Biso   1.000  N
  N152     1.0000 0.44250  0.72125  0.93235  Biso   1.000  N
  C328     1.0000 0.46390  0.73195  0.99130  Biso   1.000  C
  N153     1.0000 0.55908  0.27954  0.40120  Biso   1.000  N
  N154     1.0000 0.10917  0.05458  0.26568  Biso   1.000  N
  C329     1.0000 0.13057  0.06528  0.32463  Biso   1.000  C
  N155     1.0000 0.22574  0.61287  0.73454  Biso   1.000  N
  N156     1.0000 0.77583  0.38792  0.59902  Biso   1.000  N
  C330     1.0000 0.79723  0.39862  0.65797  Biso   1.000  C
  N157     1.0000 0.05380  0.94620  0.06787  Biso   1.000  N
  N158     1.0000 0.27875  0.72125  0.93235  Biso   1.000  N
  C331     1.0000 0.26805  0.73195  0.99130  Biso   1.000  C
  N159     1.0000 0.72046  0.27954  0.40120  Biso   1.000  N
  N160     1.0000 0.94542  0.05458  0.26568  Biso   1.000  N
  C332     1.0000 0.93472  0.06528  0.32463  Biso   1.000  C
  N161     1.0000 0.38713  0.61287  0.73454  Biso   1.000  N
  N162     1.0000 0.61208  0.38792  0.59902  Biso   1.000  N
  C333     1.0000 0.60138  0.39862  0.65797  Biso   1.000  C
  N163     1.0000 0.10759  0.05380  0.93213  Biso   1.000  N
  N164     1.0000 0.55750  0.27875  0.06765  Biso   1.000  N
  C334     1.0000 0.53610  0.26805  0.00870  Biso   1.000  C
  N165     1.0000 0.77426  0.38713  0.26546  Biso   1.000  N
  N166     1.0000 0.22417  0.61208  0.40098  Biso   1.000  N
  C335     1.0000 0.20277  0.60138  0.34203  Biso   1.000  C
  N167     1.0000 0.44092  0.72046  0.59880  Biso   1.000  N
  N168     1.0000 0.89083  0.94542  0.73432  Biso   1.000  N
  C336     1.0000 0.86943  0.93472  0.67537  Biso   1.000  C
  N169     1.0000 0.94620  0.89241  0.93213  Biso   1.000  N
  N170     1.0000 0.72125  0.44250  0.06765  Biso   1.000  N
  C337     1.0000 0.73195  0.46390  0.00870  Biso   1.000  C
  N171     1.0000 0.61287  0.22574  0.26546  Biso   1.000  N
  N172     1.0000 0.38792  0.77583  0.40098  Biso   1.000  N
  C338     1.0000 0.39862  0.79723  0.34203  Biso   1.000  C
  N173     1.0000 0.27954  0.55908  0.59880  Biso   1.000  N
  N174     1.0000 0.05458  0.10917  0.73432  Biso   1.000  N
  C339     1.0000 0.06528  0.13057  0.67537  Biso   1.000  C
  N175     1.0000 0.94620  0.05380  0.93213  Biso   1.000  N
  N176     1.0000 0.72125  0.27875  0.06765  Biso   1.000  N
  C340     1.0000 0.73195  0.26805  0.00870  Biso   1.000  C
  N177     1.0000 0.61287  0.38713  0.26546  Biso   1.000  N
  N178     1.0000 0.38792  0.61208  0.40098  Biso   1.000  N
  C341     1.0000 0.39862  0.60138  0.34203  Biso   1.000  C
  N179     1.0000 0.27954  0.72046  0.59880  Biso   1.000  N
  N180     1.0000 0.05458  0.94542  0.73432  Biso   1.000  N
  C342     1.0000 0.06528  0.93472  0.67537  Biso   1.000  C
