data_image0
_cell_length_a       38.757
_cell_length_b       38.757
_cell_length_c       38.757
_cell_angle_alpha    90
_cell_angle_beta     90
_cell_angle_gamma    90

_symmetry_space_group_name_H-M    "P 1"
_symmetry_int_tables_number       1

loop_
  _symmetry_equiv_pos_as_xyz
  'x, y, z'

loop_
  _atom_site_label
  _atom_site_occupancy
  _atom_site_fract_x
  _atom_site_fract_y
  _atom_site_fract_z
  _atom_site_thermal_displace_type
  _atom_site_B_iso_or_equiv
  _atom_site_type_symbol
  H1       1.0000 0.81960  0.19420  0.08580  Biso   1.000  H
  H2       1.0000 0.84500  0.17410  0.06150  Biso   1.000  H
  H3       1.0000 0.80950  0.15760  0.07170  Biso   1.000  H
  H4       1.0000 0.90079  0.43638  0.12980  Biso   1.000  H
  H5       1.0000 0.87309  0.43616  0.09844  Biso   1.000  H
  H6       1.0000 0.80252  0.18089  0.08648  Biso   1.000  H
  H7       1.0000 0.84386  0.19353  0.07110  Biso   1.000  H
  H8       1.0000 0.82622  0.15298  0.05883  Biso   1.000  H
  H9       1.0000 0.87164  0.43627  0.09878  Biso   1.000  H
  H10      1.0000 0.81960  0.69420  0.58580  Biso   1.000  H
  H11      1.0000 0.84500  0.67410  0.56150  Biso   1.000  H
  H12      1.0000 0.80950  0.65760  0.57170  Biso   1.000  H
  H13      1.0000 0.90079  0.93638  0.62980  Biso   1.000  H
  H14      1.0000 0.87309  0.93616  0.59844  Biso   1.000  H
  H15      1.0000 0.80252  0.68089  0.58648  Biso   1.000  H
  H16      1.0000 0.84386  0.69353  0.57110  Biso   1.000  H
  H17      1.0000 0.82622  0.65298  0.55883  Biso   1.000  H
  H18      1.0000 0.87164  0.93627  0.59878  Biso   1.000  H
  H19      1.0000 0.31960  0.19420  0.58580  Biso   1.000  H
  H20      1.0000 0.34500  0.17410  0.56150  Biso   1.000  H
  H21      1.0000 0.30950  0.15760  0.57170  Biso   1.000  H
  H22      1.0000 0.40079  0.43638  0.62980  Biso   1.000  H
  H23      1.0000 0.37309  0.43616  0.59844  Biso   1.000  H
  H24      1.0000 0.30252  0.18089  0.58648  Biso   1.000  H
  H25      1.0000 0.34386  0.19353  0.57110  Biso   1.000  H
  H26      1.0000 0.32622  0.15298  0.55883  Biso   1.000  H
  H27      1.0000 0.37164  0.43627  0.59878  Biso   1.000  H
  H28      1.0000 0.31960  0.69420  0.08580  Biso   1.000  H
  H29      1.0000 0.34500  0.67410  0.06150  Biso   1.000  H
  H30      1.0000 0.30950  0.65760  0.07170  Biso   1.000  H
  H31      1.0000 0.40079  0.93638  0.12980  Biso   1.000  H
  H32      1.0000 0.37309  0.93616  0.09844  Biso   1.000  H
  H33      1.0000 0.30252  0.68089  0.08648  Biso   1.000  H
  H34      1.0000 0.34386  0.69353  0.07110  Biso   1.000  H
  H35      1.0000 0.32622  0.65298  0.05883  Biso   1.000  H
  H36      1.0000 0.37164  0.93627  0.09878  Biso   1.000  H
  H37      1.0000 0.18040  0.80580  0.08580  Biso   1.000  H
  H38      1.0000 0.15500  0.82590  0.06150  Biso   1.000  H
  H39      1.0000 0.19050  0.84240  0.07170  Biso   1.000  H
  H40      1.0000 0.09921  0.56362  0.12980  Biso   1.000  H
  H41      1.0000 0.12691  0.56384  0.09844  Biso   1.000  H
  H42      1.0000 0.19748  0.81911  0.08648  Biso   1.000  H
  H43      1.0000 0.15614  0.80647  0.07110  Biso   1.000  H
  H44      1.0000 0.17378  0.84702  0.05883  Biso   1.000  H
  H45      1.0000 0.12836  0.56373  0.09878  Biso   1.000  H
  H46      1.0000 0.18040  0.30580  0.58580  Biso   1.000  H
  H47      1.0000 0.15500  0.32590  0.56150  Biso   1.000  H
  H48      1.0000 0.19050  0.34240  0.57170  Biso   1.000  H
  H49      1.0000 0.09921  0.06362  0.62980  Biso   1.000  H
  H50      1.0000 0.12691  0.06384  0.59844  Biso   1.000  H
  H51      1.0000 0.19748  0.31911  0.58648  Biso   1.000  H
  H52      1.0000 0.15614  0.30647  0.57110  Biso   1.000  H
  H53      1.0000 0.17378  0.34702  0.55883  Biso   1.000  H
  H54      1.0000 0.12836  0.06373  0.59878  Biso   1.000  H
  H55      1.0000 0.68040  0.80580  0.58580  Biso   1.000  H
  H56      1.0000 0.65500  0.82590  0.56150  Biso   1.000  H
  H57      1.0000 0.69050  0.84240  0.57170  Biso   1.000  H
  H58      1.0000 0.59921  0.56362  0.62980  Biso   1.000  H
  H59      1.0000 0.62691  0.56384  0.59844  Biso   1.000  H
  H60      1.0000 0.69748  0.81911  0.58648  Biso   1.000  H
  H61      1.0000 0.65614  0.80647  0.57110  Biso   1.000  H
  H62      1.0000 0.67378  0.84702  0.55883  Biso   1.000  H
  H63      1.0000 0.62836  0.56373  0.59878  Biso   1.000  H
  H64      1.0000 0.68040  0.30580  0.08580  Biso   1.000  H
  H65      1.0000 0.65500  0.32590  0.06150  Biso   1.000  H
  H66      1.0000 0.69050  0.34240  0.07170  Biso   1.000  H
  H67      1.0000 0.59921  0.06362  0.12980  Biso   1.000  H
  H68      1.0000 0.62691  0.06384  0.09844  Biso   1.000  H
  H69      1.0000 0.69748  0.31911  0.08648  Biso   1.000  H
  H70      1.0000 0.65614  0.30647  0.07110  Biso   1.000  H
  H71      1.0000 0.67378  0.34702  0.05883  Biso   1.000  H
  H72      1.0000 0.62836  0.06373  0.09878  Biso   1.000  H
  H73      1.0000 0.18040  0.19420  0.91420  Biso   1.000  H
  H74      1.0000 0.15500  0.17410  0.93850  Biso   1.000  H
  H75      1.0000 0.19050  0.15760  0.92830  Biso   1.000  H
  H76      1.0000 0.09921  0.43638  0.87020  Biso   1.000  H
  H77      1.0000 0.12691  0.43616  0.90156  Biso   1.000  H
  H78      1.0000 0.19748  0.18089  0.91352  Biso   1.000  H
  H79      1.0000 0.15614  0.19353  0.92890  Biso   1.000  H
  H80      1.0000 0.17378  0.15298  0.94117  Biso   1.000  H
  H81      1.0000 0.12836  0.43627  0.90122  Biso   1.000  H
  H82      1.0000 0.18040  0.69420  0.41420  Biso   1.000  H
  H83      1.0000 0.15500  0.67410  0.43850  Biso   1.000  H
  H84      1.0000 0.19050  0.65760  0.42830  Biso   1.000  H
  H85      1.0000 0.09921  0.93638  0.37020  Biso   1.000  H
  H86      1.0000 0.12691  0.93616  0.40156  Biso   1.000  H
  H87      1.0000 0.19748  0.68089  0.41352  Biso   1.000  H
  H88      1.0000 0.15614  0.69353  0.42890  Biso   1.000  H
  H89      1.0000 0.17378  0.65298  0.44117  Biso   1.000  H
  H90      1.0000 0.12836  0.93627  0.40122  Biso   1.000  H
  H91      1.0000 0.68040  0.19420  0.41420  Biso   1.000  H
  H92      1.0000 0.65500  0.17410  0.43850  Biso   1.000  H
  H93      1.0000 0.69050  0.15760  0.42830  Biso   1.000  H
  H94      1.0000 0.59921  0.43638  0.37020  Biso   1.000  H
  H95      1.0000 0.62691  0.43616  0.40156  Biso   1.000  H
  H96      1.0000 0.69748  0.18089  0.41352  Biso   1.000  H
  H97      1.0000 0.65614  0.19353  0.42890  Biso   1.000  H
  H98      1.0000 0.67378  0.15298  0.44117  Biso   1.000  H
  H99      1.0000 0.62836  0.43627  0.40122  Biso   1.000  H
  H100     1.0000 0.68040  0.69420  0.91420  Biso   1.000  H
  H101     1.0000 0.65500  0.67410  0.93850  Biso   1.000  H
  H102     1.0000 0.69050  0.65760  0.92830  Biso   1.000  H
  H103     1.0000 0.59921  0.93638  0.87020  Biso   1.000  H
  H104     1.0000 0.62691  0.93616  0.90156  Biso   1.000  H
  H105     1.0000 0.69748  0.68089  0.91352  Biso   1.000  H
  H106     1.0000 0.65614  0.69353  0.92890  Biso   1.000  H
  H107     1.0000 0.67378  0.65298  0.94117  Biso   1.000  H
  H108     1.0000 0.62836  0.93627  0.90122  Biso   1.000  H
  H109     1.0000 0.81960  0.80580  0.91420  Biso   1.000  H
  H110     1.0000 0.84500  0.82590  0.93850  Biso   1.000  H
  H111     1.0000 0.80950  0.84240  0.92830  Biso   1.000  H
  H112     1.0000 0.90079  0.56362  0.87020  Biso   1.000  H
  H113     1.0000 0.87309  0.56384  0.90156  Biso   1.000  H
  H114     1.0000 0.80252  0.81911  0.91352  Biso   1.000  H
  H115     1.0000 0.84386  0.80647  0.92890  Biso   1.000  H
  H116     1.0000 0.82622  0.84702  0.94117  Biso   1.000  H
  H117     1.0000 0.87164  0.56373  0.90122  Biso   1.000  H
  H118     1.0000 0.81960  0.30580  0.41420  Biso   1.000  H
  H119     1.0000 0.84500  0.32590  0.43850  Biso   1.000  H
  H120     1.0000 0.80950  0.34240  0.42830  Biso   1.000  H
  H121     1.0000 0.90079  0.06362  0.37020  Biso   1.000  H
  H122     1.0000 0.87309  0.06384  0.40156  Biso   1.000  H
  H123     1.0000 0.80252  0.31911  0.41352  Biso   1.000  H
  H124     1.0000 0.84386  0.30647  0.42890  Biso   1.000  H
  H125     1.0000 0.82622  0.34702  0.44117  Biso   1.000  H
  H126     1.0000 0.87164  0.06373  0.40122  Biso   1.000  H
  H127     1.0000 0.31960  0.80580  0.41420  Biso   1.000  H
  H128     1.0000 0.34500  0.82590  0.43850  Biso   1.000  H
  H129     1.0000 0.30950  0.84240  0.42830  Biso   1.000  H
  H130     1.0000 0.40079  0.56362  0.37020  Biso   1.000  H
  H131     1.0000 0.37309  0.56384  0.40156  Biso   1.000  H
  H132     1.0000 0.30252  0.81911  0.41352  Biso   1.000  H
  H133     1.0000 0.34386  0.80647  0.42890  Biso   1.000  H
  H134     1.0000 0.32622  0.84702  0.44117  Biso   1.000  H
  H135     1.0000 0.37164  0.56373  0.40122  Biso   1.000  H
  H136     1.0000 0.31960  0.30580  0.91420  Biso   1.000  H
  H137     1.0000 0.34500  0.32590  0.93850  Biso   1.000  H
  H138     1.0000 0.30950  0.34240  0.92830  Biso   1.000  H
  H139     1.0000 0.40079  0.06362  0.87020  Biso   1.000  H
  H140     1.0000 0.37309  0.06384  0.90156  Biso   1.000  H
  H141     1.0000 0.30252  0.31911  0.91352  Biso   1.000  H
  H142     1.0000 0.34386  0.30647  0.92890  Biso   1.000  H
  H143     1.0000 0.32622  0.34702  0.94117  Biso   1.000  H
  H144     1.0000 0.37164  0.06373  0.90122  Biso   1.000  H
  H145     1.0000 0.08580  0.81960  0.19420  Biso   1.000  H
  H146     1.0000 0.06150  0.84500  0.17410  Biso   1.000  H
  H147     1.0000 0.07170  0.80950  0.15760  Biso   1.000  H
  H148     1.0000 0.12980  0.90079  0.43638  Biso   1.000  H
  H149     1.0000 0.09844  0.87309  0.43616  Biso   1.000  H
  H150     1.0000 0.08648  0.80252  0.18089  Biso   1.000  H
  H151     1.0000 0.07110  0.84386  0.19353  Biso   1.000  H
  H152     1.0000 0.05883  0.82622  0.15298  Biso   1.000  H
  H153     1.0000 0.09878  0.87164  0.43627  Biso   1.000  H
  H154     1.0000 0.08580  0.31960  0.69420  Biso   1.000  H
  H155     1.0000 0.06150  0.34500  0.67410  Biso   1.000  H
  H156     1.0000 0.07170  0.30950  0.65760  Biso   1.000  H
  H157     1.0000 0.12980  0.40079  0.93638  Biso   1.000  H
  H158     1.0000 0.09844  0.37309  0.93616  Biso   1.000  H
  H159     1.0000 0.08648  0.30252  0.68089  Biso   1.000  H
  H160     1.0000 0.07110  0.34386  0.69353  Biso   1.000  H
  H161     1.0000 0.05883  0.32622  0.65298  Biso   1.000  H
  H162     1.0000 0.09878  0.37164  0.93627  Biso   1.000  H
  H163     1.0000 0.58580  0.81960  0.69420  Biso   1.000  H
  H164     1.0000 0.56150  0.84500  0.67410  Biso   1.000  H
  H165     1.0000 0.57170  0.80950  0.65760  Biso   1.000  H
  H166     1.0000 0.62980  0.90079  0.93638  Biso   1.000  H
  H167     1.0000 0.59844  0.87309  0.93616  Biso   1.000  H
  H168     1.0000 0.58648  0.80252  0.68089  Biso   1.000  H
  H169     1.0000 0.57110  0.84386  0.69353  Biso   1.000  H
  H170     1.0000 0.55883  0.82622  0.65298  Biso   1.000  H
  H171     1.0000 0.59878  0.87164  0.93627  Biso   1.000  H
  H172     1.0000 0.58580  0.31960  0.19420  Biso   1.000  H
  H173     1.0000 0.56150  0.34500  0.17410  Biso   1.000  H
  H174     1.0000 0.57170  0.30950  0.15760  Biso   1.000  H
  H175     1.0000 0.62980  0.40079  0.43638  Biso   1.000  H
  H176     1.0000 0.59844  0.37309  0.43616  Biso   1.000  H
  H177     1.0000 0.58648  0.30252  0.18089  Biso   1.000  H
  H178     1.0000 0.57110  0.34386  0.19353  Biso   1.000  H
  H179     1.0000 0.55883  0.32622  0.15298  Biso   1.000  H
  H180     1.0000 0.59878  0.37164  0.43627  Biso   1.000  H
  H181     1.0000 0.08580  0.18040  0.80580  Biso   1.000  H
  H182     1.0000 0.06150  0.15500  0.82590  Biso   1.000  H
  H183     1.0000 0.07170  0.19050  0.84240  Biso   1.000  H
  H184     1.0000 0.12980  0.09921  0.56362  Biso   1.000  H
  H185     1.0000 0.09844  0.12691  0.56384  Biso   1.000  H
  H186     1.0000 0.08648  0.19748  0.81911  Biso   1.000  H
  H187     1.0000 0.07110  0.15614  0.80647  Biso   1.000  H
  H188     1.0000 0.05883  0.17378  0.84702  Biso   1.000  H
  H189     1.0000 0.09878  0.12836  0.56373  Biso   1.000  H
  H190     1.0000 0.08580  0.68040  0.30580  Biso   1.000  H
  H191     1.0000 0.06150  0.65500  0.32590  Biso   1.000  H
  H192     1.0000 0.07170  0.69050  0.34240  Biso   1.000  H
  H193     1.0000 0.12980  0.59921  0.06362  Biso   1.000  H
  H194     1.0000 0.09844  0.62691  0.06384  Biso   1.000  H
  H195     1.0000 0.08648  0.69748  0.31911  Biso   1.000  H
  H196     1.0000 0.07110  0.65614  0.30647  Biso   1.000  H
  H197     1.0000 0.05883  0.67378  0.34702  Biso   1.000  H
  H198     1.0000 0.09878  0.62836  0.06373  Biso   1.000  H
  H199     1.0000 0.58580  0.18040  0.30580  Biso   1.000  H
  H200     1.0000 0.56150  0.15500  0.32590  Biso   1.000  H
  H201     1.0000 0.57170  0.19050  0.34240  Biso   1.000  H
  H202     1.0000 0.62980  0.09921  0.06362  Biso   1.000  H
  H203     1.0000 0.59844  0.12691  0.06384  Biso   1.000  H
  H204     1.0000 0.58648  0.19748  0.31911  Biso   1.000  H
  H205     1.0000 0.57110  0.15614  0.30647  Biso   1.000  H
  H206     1.0000 0.55883  0.17378  0.34702  Biso   1.000  H
  H207     1.0000 0.59878  0.12836  0.06373  Biso   1.000  H
  H208     1.0000 0.58580  0.68040  0.80580  Biso   1.000  H
  H209     1.0000 0.56150  0.65500  0.82590  Biso   1.000  H
  H210     1.0000 0.57170  0.69050  0.84240  Biso   1.000  H
  H211     1.0000 0.62980  0.59921  0.56362  Biso   1.000  H
  H212     1.0000 0.59844  0.62691  0.56384  Biso   1.000  H
  H213     1.0000 0.58648  0.69748  0.81911  Biso   1.000  H
  H214     1.0000 0.57110  0.65614  0.80647  Biso   1.000  H
  H215     1.0000 0.55883  0.67378  0.84702  Biso   1.000  H
  H216     1.0000 0.59878  0.62836  0.56373  Biso   1.000  H
  H217     1.0000 0.91420  0.18040  0.19420  Biso   1.000  H
  H218     1.0000 0.93850  0.15500  0.17410  Biso   1.000  H
  H219     1.0000 0.92830  0.19050  0.15760  Biso   1.000  H
  H220     1.0000 0.87020  0.09921  0.43638  Biso   1.000  H
  H221     1.0000 0.90156  0.12691  0.43616  Biso   1.000  H
  H222     1.0000 0.91352  0.19748  0.18089  Biso   1.000  H
  H223     1.0000 0.92890  0.15614  0.19353  Biso   1.000  H
  H224     1.0000 0.94117  0.17378  0.15298  Biso   1.000  H
  H225     1.0000 0.90122  0.12836  0.43627  Biso   1.000  H
  H226     1.0000 0.91420  0.68040  0.69420  Biso   1.000  H
  H227     1.0000 0.93850  0.65500  0.67410  Biso   1.000  H
  H228     1.0000 0.92830  0.69050  0.65760  Biso   1.000  H
  H229     1.0000 0.87020  0.59921  0.93638  Biso   1.000  H
  H230     1.0000 0.90156  0.62691  0.93616  Biso   1.000  H
  H231     1.0000 0.91352  0.69748  0.68089  Biso   1.000  H
  H232     1.0000 0.92890  0.65614  0.69353  Biso   1.000  H
  H233     1.0000 0.94117  0.67378  0.65298  Biso   1.000  H
  H234     1.0000 0.90122  0.62836  0.93627  Biso   1.000  H
  H235     1.0000 0.41420  0.18040  0.69420  Biso   1.000  H
  H236     1.0000 0.43850  0.15500  0.67410  Biso   1.000  H
  H237     1.0000 0.42830  0.19050  0.65760  Biso   1.000  H
  H238     1.0000 0.37020  0.09921  0.93638  Biso   1.000  H
  H239     1.0000 0.40156  0.12691  0.93616  Biso   1.000  H
  H240     1.0000 0.41352  0.19748  0.68089  Biso   1.000  H
  H241     1.0000 0.42890  0.15614  0.69353  Biso   1.000  H
  H242     1.0000 0.44117  0.17378  0.65298  Biso   1.000  H
  H243     1.0000 0.40122  0.12836  0.93627  Biso   1.000  H
  H244     1.0000 0.41420  0.68040  0.19420  Biso   1.000  H
  H245     1.0000 0.43850  0.65500  0.17410  Biso   1.000  H
  H246     1.0000 0.42830  0.69050  0.15760  Biso   1.000  H
  H247     1.0000 0.37020  0.59921  0.43638  Biso   1.000  H
  H248     1.0000 0.40156  0.62691  0.43616  Biso   1.000  H
  H249     1.0000 0.41352  0.69748  0.18089  Biso   1.000  H
  H250     1.0000 0.42890  0.65614  0.19353  Biso   1.000  H
  H251     1.0000 0.44117  0.67378  0.15298  Biso   1.000  H
  H252     1.0000 0.40122  0.62836  0.43627  Biso   1.000  H
  H253     1.0000 0.91420  0.81960  0.80580  Biso   1.000  H
  H254     1.0000 0.93850  0.84500  0.82590  Biso   1.000  H
  H255     1.0000 0.92830  0.80950  0.84240  Biso   1.000  H
  H256     1.0000 0.87020  0.90079  0.56362  Biso   1.000  H
  H257     1.0000 0.90156  0.87309  0.56384  Biso   1.000  H
  H258     1.0000 0.91352  0.80252  0.81911  Biso   1.000  H
  H259     1.0000 0.92890  0.84386  0.80647  Biso   1.000  H
  H260     1.0000 0.94117  0.82622  0.84702  Biso   1.000  H
  H261     1.0000 0.90122  0.87164  0.56373  Biso   1.000  H
  H262     1.0000 0.91420  0.31960  0.30580  Biso   1.000  H
  H263     1.0000 0.93850  0.34500  0.32590  Biso   1.000  H
  H264     1.0000 0.92830  0.30950  0.34240  Biso   1.000  H
  H265     1.0000 0.87020  0.40079  0.06362  Biso   1.000  H
  H266     1.0000 0.90156  0.37309  0.06384  Biso   1.000  H
  H267     1.0000 0.91352  0.30252  0.31911  Biso   1.000  H
  H268     1.0000 0.92890  0.34386  0.30647  Biso   1.000  H
  H269     1.0000 0.94117  0.32622  0.34702  Biso   1.000  H
  H270     1.0000 0.90122  0.37164  0.06373  Biso   1.000  H
  H271     1.0000 0.41420  0.81960  0.30580  Biso   1.000  H
  H272     1.0000 0.43850  0.84500  0.32590  Biso   1.000  H
  H273     1.0000 0.42830  0.80950  0.34240  Biso   1.000  H
  H274     1.0000 0.37020  0.90079  0.06362  Biso   1.000  H
  H275     1.0000 0.40156  0.87309  0.06384  Biso   1.000  H
  H276     1.0000 0.41352  0.80252  0.31911  Biso   1.000  H
  H277     1.0000 0.42890  0.84386  0.30647  Biso   1.000  H
  H278     1.0000 0.44117  0.82622  0.34702  Biso   1.000  H
  H279     1.0000 0.40122  0.87164  0.06373  Biso   1.000  H
  H280     1.0000 0.41420  0.31960  0.80580  Biso   1.000  H
  H281     1.0000 0.43850  0.34500  0.82590  Biso   1.000  H
  H282     1.0000 0.42830  0.30950  0.84240  Biso   1.000  H
  H283     1.0000 0.37020  0.40079  0.56362  Biso   1.000  H
  H284     1.0000 0.40156  0.37309  0.56384  Biso   1.000  H
  H285     1.0000 0.41352  0.30252  0.81911  Biso   1.000  H
  H286     1.0000 0.42890  0.34386  0.80647  Biso   1.000  H
  H287     1.0000 0.44117  0.32622  0.84702  Biso   1.000  H
  H288     1.0000 0.40122  0.37164  0.56373  Biso   1.000  H
  H289     1.0000 0.19420  0.08580  0.81960  Biso   1.000  H
  H290     1.0000 0.17410  0.06150  0.84500  Biso   1.000  H
  H291     1.0000 0.15760  0.07170  0.80950  Biso   1.000  H
  H292     1.0000 0.43638  0.12980  0.90079  Biso   1.000  H
  H293     1.0000 0.43616  0.09844  0.87309  Biso   1.000  H
  H294     1.0000 0.18089  0.08648  0.80252  Biso   1.000  H
  H295     1.0000 0.19353  0.07110  0.84386  Biso   1.000  H
  H296     1.0000 0.15298  0.05883  0.82622  Biso   1.000  H
  H297     1.0000 0.43627  0.09878  0.87164  Biso   1.000  H
  H298     1.0000 0.19420  0.58580  0.31960  Biso   1.000  H
  H299     1.0000 0.17410  0.56150  0.34500  Biso   1.000  H
  H300     1.0000 0.15760  0.57170  0.30950  Biso   1.000  H
  H301     1.0000 0.43638  0.62980  0.40079  Biso   1.000  H
  H302     1.0000 0.43616  0.59844  0.37309  Biso   1.000  H
  H303     1.0000 0.18089  0.58648  0.30252  Biso   1.000  H
  H304     1.0000 0.19353  0.57110  0.34386  Biso   1.000  H
  H305     1.0000 0.15298  0.55883  0.32622  Biso   1.000  H
  H306     1.0000 0.43627  0.59878  0.37164  Biso   1.000  H
  H307     1.0000 0.69420  0.08580  0.31960  Biso   1.000  H
  H308     1.0000 0.67410  0.06150  0.34500  Biso   1.000  H
  H309     1.0000 0.65760  0.07170  0.30950  Biso   1.000  H
  H310     1.0000 0.93638  0.12980  0.40079  Biso   1.000  H
  H311     1.0000 0.93616  0.09844  0.37309  Biso   1.000  H
  H312     1.0000 0.68089  0.08648  0.30252  Biso   1.000  H
  H313     1.0000 0.69353  0.07110  0.34386  Biso   1.000  H
  H314     1.0000 0.65298  0.05883  0.32622  Biso   1.000  H
  H315     1.0000 0.93627  0.09878  0.37164  Biso   1.000  H
  H316     1.0000 0.69420  0.58580  0.81960  Biso   1.000  H
  H317     1.0000 0.67410  0.56150  0.84500  Biso   1.000  H
  H318     1.0000 0.65760  0.57170  0.80950  Biso   1.000  H
  H319     1.0000 0.93638  0.62980  0.90079  Biso   1.000  H
  H320     1.0000 0.93616  0.59844  0.87309  Biso   1.000  H
  H321     1.0000 0.68089  0.58648  0.80252  Biso   1.000  H
  H322     1.0000 0.69353  0.57110  0.84386  Biso   1.000  H
  H323     1.0000 0.65298  0.55883  0.82622  Biso   1.000  H
  H324     1.0000 0.93627  0.59878  0.87164  Biso   1.000  H
  H325     1.0000 0.80580  0.08580  0.18040  Biso   1.000  H
  H326     1.0000 0.82590  0.06150  0.15500  Biso   1.000  H
  H327     1.0000 0.84240  0.07170  0.19050  Biso   1.000  H
  H328     1.0000 0.56362  0.12980  0.09921  Biso   1.000  H
  H329     1.0000 0.56384  0.09844  0.12691  Biso   1.000  H
  H330     1.0000 0.81911  0.08648  0.19748  Biso   1.000  H
  H331     1.0000 0.80647  0.07110  0.15614  Biso   1.000  H
  H332     1.0000 0.84702  0.05883  0.17378  Biso   1.000  H
  H333     1.0000 0.56373  0.09878  0.12836  Biso   1.000  H
  H334     1.0000 0.80580  0.58580  0.68040  Biso   1.000  H
  H335     1.0000 0.82590  0.56150  0.65500  Biso   1.000  H
  H336     1.0000 0.84240  0.57170  0.69050  Biso   1.000  H
  H337     1.0000 0.56362  0.62980  0.59921  Biso   1.000  H
  H338     1.0000 0.56384  0.59844  0.62691  Biso   1.000  H
  H339     1.0000 0.81911  0.58648  0.69748  Biso   1.000  H
  H340     1.0000 0.80647  0.57110  0.65614  Biso   1.000  H
  H341     1.0000 0.84702  0.55883  0.67378  Biso   1.000  H
  H342     1.0000 0.56373  0.59878  0.62836  Biso   1.000  H
  H343     1.0000 0.30580  0.08580  0.68040  Biso   1.000  H
  H344     1.0000 0.32590  0.06150  0.65500  Biso   1.000  H
  H345     1.0000 0.34240  0.07170  0.69050  Biso   1.000  H
  H346     1.0000 0.06362  0.12980  0.59921  Biso   1.000  H
  H347     1.0000 0.06384  0.09844  0.62691  Biso   1.000  H
  H348     1.0000 0.31911  0.08648  0.69748  Biso   1.000  H
  H349     1.0000 0.30647  0.07110  0.65614  Biso   1.000  H
  H350     1.0000 0.34702  0.05883  0.67378  Biso   1.000  H
  H351     1.0000 0.06373  0.09878  0.62836  Biso   1.000  H
  H352     1.0000 0.30580  0.58580  0.18040  Biso   1.000  H
  H353     1.0000 0.32590  0.56150  0.15500  Biso   1.000  H
  H354     1.0000 0.34240  0.57170  0.19050  Biso   1.000  H
  H355     1.0000 0.06362  0.62980  0.09921  Biso   1.000  H
  H356     1.0000 0.06384  0.59844  0.12691  Biso   1.000  H
  H357     1.0000 0.31911  0.58648  0.19748  Biso   1.000  H
  H358     1.0000 0.30647  0.57110  0.15614  Biso   1.000  H
  H359     1.0000 0.34702  0.55883  0.17378  Biso   1.000  H
  H360     1.0000 0.06373  0.59878  0.12836  Biso   1.000  H
  H361     1.0000 0.19420  0.91420  0.18040  Biso   1.000  H
  H362     1.0000 0.17410  0.93850  0.15500  Biso   1.000  H
  H363     1.0000 0.15760  0.92830  0.19050  Biso   1.000  H
  H364     1.0000 0.43638  0.87020  0.09921  Biso   1.000  H
  H365     1.0000 0.43616  0.90156  0.12691  Biso   1.000  H
  H366     1.0000 0.18089  0.91352  0.19748  Biso   1.000  H
  H367     1.0000 0.19353  0.92890  0.15614  Biso   1.000  H
  H368     1.0000 0.15298  0.94117  0.17378  Biso   1.000  H
  H369     1.0000 0.43627  0.90122  0.12836  Biso   1.000  H
  H370     1.0000 0.19420  0.41420  0.68040  Biso   1.000  H
  H371     1.0000 0.17410  0.43850  0.65500  Biso   1.000  H
  H372     1.0000 0.15760  0.42830  0.69050  Biso   1.000  H
  H373     1.0000 0.43638  0.37020  0.59921  Biso   1.000  H
  H374     1.0000 0.43616  0.40156  0.62691  Biso   1.000  H
  H375     1.0000 0.18089  0.41352  0.69748  Biso   1.000  H
  H376     1.0000 0.19353  0.42890  0.65614  Biso   1.000  H
  H377     1.0000 0.15298  0.44117  0.67378  Biso   1.000  H
  H378     1.0000 0.43627  0.40122  0.62836  Biso   1.000  H
  H379     1.0000 0.69420  0.91420  0.68040  Biso   1.000  H
  H380     1.0000 0.67410  0.93850  0.65500  Biso   1.000  H
  H381     1.0000 0.65760  0.92830  0.69050  Biso   1.000  H
  H382     1.0000 0.93638  0.87020  0.59921  Biso   1.000  H
  H383     1.0000 0.93616  0.90156  0.62691  Biso   1.000  H
  H384     1.0000 0.68089  0.91352  0.69748  Biso   1.000  H
  H385     1.0000 0.69353  0.92890  0.65614  Biso   1.000  H
  H386     1.0000 0.65298  0.94117  0.67378  Biso   1.000  H
  H387     1.0000 0.93627  0.90122  0.62836  Biso   1.000  H
  H388     1.0000 0.69420  0.41420  0.18040  Biso   1.000  H
  H389     1.0000 0.67410  0.43850  0.15500  Biso   1.000  H
  H390     1.0000 0.65760  0.42830  0.19050  Biso   1.000  H
  H391     1.0000 0.93638  0.37020  0.09921  Biso   1.000  H
  H392     1.0000 0.93616  0.40156  0.12691  Biso   1.000  H
  H393     1.0000 0.68089  0.41352  0.19748  Biso   1.000  H
  H394     1.0000 0.69353  0.42890  0.15614  Biso   1.000  H
  H395     1.0000 0.65298  0.44117  0.17378  Biso   1.000  H
  H396     1.0000 0.93627  0.40122  0.12836  Biso   1.000  H
  H397     1.0000 0.80580  0.91420  0.81960  Biso   1.000  H
  H398     1.0000 0.82590  0.93850  0.84500  Biso   1.000  H
  H399     1.0000 0.84240  0.92830  0.80950  Biso   1.000  H
  H400     1.0000 0.56362  0.87020  0.90079  Biso   1.000  H
  H401     1.0000 0.56384  0.90156  0.87309  Biso   1.000  H
  H402     1.0000 0.81911  0.91352  0.80252  Biso   1.000  H
  H403     1.0000 0.80647  0.92890  0.84386  Biso   1.000  H
  H404     1.0000 0.84702  0.94117  0.82622  Biso   1.000  H
  H405     1.0000 0.56373  0.90122  0.87164  Biso   1.000  H
  H406     1.0000 0.80580  0.41420  0.31960  Biso   1.000  H
  H407     1.0000 0.82590  0.43850  0.34500  Biso   1.000  H
  H408     1.0000 0.84240  0.42830  0.30950  Biso   1.000  H
  H409     1.0000 0.56362  0.37020  0.40079  Biso   1.000  H
  H410     1.0000 0.56384  0.40156  0.37309  Biso   1.000  H
  H411     1.0000 0.81911  0.41352  0.30252  Biso   1.000  H
  H412     1.0000 0.80647  0.42890  0.34386  Biso   1.000  H
  H413     1.0000 0.84702  0.44117  0.32622  Biso   1.000  H
  H414     1.0000 0.56373  0.40122  0.37164  Biso   1.000  H
  H415     1.0000 0.30580  0.91420  0.31960  Biso   1.000  H
  H416     1.0000 0.32590  0.93850  0.34500  Biso   1.000  H
  H417     1.0000 0.34240  0.92830  0.30950  Biso   1.000  H
  H418     1.0000 0.06362  0.87020  0.40079  Biso   1.000  H
  H419     1.0000 0.06384  0.90156  0.37309  Biso   1.000  H
  H420     1.0000 0.31911  0.91352  0.30252  Biso   1.000  H
  H421     1.0000 0.30647  0.92890  0.34386  Biso   1.000  H
  H422     1.0000 0.34702  0.94117  0.32622  Biso   1.000  H
  H423     1.0000 0.06373  0.90122  0.37164  Biso   1.000  H
  H424     1.0000 0.30580  0.41420  0.81960  Biso   1.000  H
  H425     1.0000 0.32590  0.43850  0.84500  Biso   1.000  H
  H426     1.0000 0.34240  0.42830  0.80950  Biso   1.000  H
  H427     1.0000 0.06362  0.37020  0.90079  Biso   1.000  H
  H428     1.0000 0.06384  0.40156  0.87309  Biso   1.000  H
  H429     1.0000 0.31911  0.41352  0.80252  Biso   1.000  H
  H430     1.0000 0.30647  0.42890  0.84386  Biso   1.000  H
  H431     1.0000 0.34702  0.44117  0.82622  Biso   1.000  H
  H432     1.0000 0.06373  0.40122  0.87164  Biso   1.000  H
  H433     1.0000 0.19420  0.81960  0.91420  Biso   1.000  H
  H434     1.0000 0.17410  0.84500  0.93850  Biso   1.000  H
  H435     1.0000 0.15760  0.80950  0.92830  Biso   1.000  H
  H436     1.0000 0.43638  0.90079  0.87020  Biso   1.000  H
  H437     1.0000 0.43616  0.87309  0.90156  Biso   1.000  H
  H438     1.0000 0.18089  0.80252  0.91352  Biso   1.000  H
  H439     1.0000 0.19353  0.84386  0.92890  Biso   1.000  H
  H440     1.0000 0.15298  0.82622  0.94117  Biso   1.000  H
  H441     1.0000 0.43627  0.87164  0.90122  Biso   1.000  H
  H442     1.0000 0.19420  0.31960  0.41420  Biso   1.000  H
  H443     1.0000 0.17410  0.34500  0.43850  Biso   1.000  H
  H444     1.0000 0.15760  0.30950  0.42830  Biso   1.000  H
  H445     1.0000 0.43638  0.40079  0.37020  Biso   1.000  H
  H446     1.0000 0.43616  0.37309  0.40156  Biso   1.000  H
  H447     1.0000 0.18089  0.30252  0.41352  Biso   1.000  H
  H448     1.0000 0.19353  0.34386  0.42890  Biso   1.000  H
  H449     1.0000 0.15298  0.32622  0.44117  Biso   1.000  H
  H450     1.0000 0.43627  0.37164  0.40122  Biso   1.000  H
  H451     1.0000 0.69420  0.81960  0.41420  Biso   1.000  H
  H452     1.0000 0.67410  0.84500  0.43850  Biso   1.000  H
  H453     1.0000 0.65760  0.80950  0.42830  Biso   1.000  H
  H454     1.0000 0.93638  0.90079  0.37020  Biso   1.000  H
  H455     1.0000 0.93616  0.87309  0.40156  Biso   1.000  H
  H456     1.0000 0.68089  0.80252  0.41352  Biso   1.000  H
  H457     1.0000 0.69353  0.84386  0.42890  Biso   1.000  H
  H458     1.0000 0.65298  0.82622  0.44117  Biso   1.000  H
  H459     1.0000 0.93627  0.87164  0.40122  Biso   1.000  H
  H460     1.0000 0.69420  0.31960  0.91420  Biso   1.000  H
  H461     1.0000 0.67410  0.34500  0.93850  Biso   1.000  H
  H462     1.0000 0.65760  0.30950  0.92830  Biso   1.000  H
  H463     1.0000 0.93638  0.40079  0.87020  Biso   1.000  H
  H464     1.0000 0.93616  0.37309  0.90156  Biso   1.000  H
  H465     1.0000 0.68089  0.30252  0.91352  Biso   1.000  H
  H466     1.0000 0.69353  0.34386  0.92890  Biso   1.000  H
  H467     1.0000 0.65298  0.32622  0.94117  Biso   1.000  H
  H468     1.0000 0.93627  0.37164  0.90122  Biso   1.000  H
  H469     1.0000 0.80580  0.18040  0.91420  Biso   1.000  H
  H470     1.0000 0.82590  0.15500  0.93850  Biso   1.000  H
  H471     1.0000 0.84240  0.19050  0.92830  Biso   1.000  H
  H472     1.0000 0.56362  0.09921  0.87020  Biso   1.000  H
  H473     1.0000 0.56384  0.12691  0.90156  Biso   1.000  H
  H474     1.0000 0.81911  0.19748  0.91352  Biso   1.000  H
  H475     1.0000 0.80647  0.15614  0.92890  Biso   1.000  H
  H476     1.0000 0.84702  0.17378  0.94117  Biso   1.000  H
  H477     1.0000 0.56373  0.12836  0.90122  Biso   1.000  H
  H478     1.0000 0.80580  0.68040  0.41420  Biso   1.000  H
  H479     1.0000 0.82590  0.65500  0.43850  Biso   1.000  H
  H480     1.0000 0.84240  0.69050  0.42830  Biso   1.000  H
  H481     1.0000 0.56362  0.59921  0.37020  Biso   1.000  H
  H482     1.0000 0.56384  0.62691  0.40156  Biso   1.000  H
  H483     1.0000 0.81911  0.69748  0.41352  Biso   1.000  H
  H484     1.0000 0.80647  0.65614  0.42890  Biso   1.000  H
  H485     1.0000 0.84702  0.67378  0.44117  Biso   1.000  H
  H486     1.0000 0.56373  0.62836  0.40122  Biso   1.000  H
  H487     1.0000 0.30580  0.18040  0.41420  Biso   1.000  H
  H488     1.0000 0.32590  0.15500  0.43850  Biso   1.000  H
  H489     1.0000 0.34240  0.19050  0.42830  Biso   1.000  H
  H490     1.0000 0.06362  0.09921  0.37020  Biso   1.000  H
  H491     1.0000 0.06384  0.12691  0.40156  Biso   1.000  H
  H492     1.0000 0.31911  0.19748  0.41352  Biso   1.000  H
  H493     1.0000 0.30647  0.15614  0.42890  Biso   1.000  H
  H494     1.0000 0.34702  0.17378  0.44117  Biso   1.000  H
  H495     1.0000 0.06373  0.12836  0.40122  Biso   1.000  H
  H496     1.0000 0.30580  0.68040  0.91420  Biso   1.000  H
  H497     1.0000 0.32590  0.65500  0.93850  Biso   1.000  H
  H498     1.0000 0.34240  0.69050  0.92830  Biso   1.000  H
  H499     1.0000 0.06362  0.59921  0.87020  Biso   1.000  H
  H500     1.0000 0.06384  0.62691  0.90156  Biso   1.000  H
  H501     1.0000 0.31911  0.69748  0.91352  Biso   1.000  H
  H502     1.0000 0.30647  0.65614  0.92890  Biso   1.000  H
  H503     1.0000 0.34702  0.67378  0.94117  Biso   1.000  H
  H504     1.0000 0.06373  0.62836  0.90122  Biso   1.000  H
  H505     1.0000 0.19420  0.18040  0.08580  Biso   1.000  H
  H506     1.0000 0.17410  0.15500  0.06150  Biso   1.000  H
  H507     1.0000 0.15760  0.19050  0.07170  Biso   1.000  H
  H508     1.0000 0.43638  0.09921  0.12980  Biso   1.000  H
  H509     1.0000 0.43616  0.12691  0.09844  Biso   1.000  H
  H510     1.0000 0.18089  0.19748  0.08648  Biso   1.000  H
  H511     1.0000 0.19353  0.15614  0.07110  Biso   1.000  H
  H512     1.0000 0.15298  0.17378  0.05883  Biso   1.000  H
  H513     1.0000 0.43627  0.12836  0.09878  Biso   1.000  H
  H514     1.0000 0.19420  0.68040  0.58580  Biso   1.000  H
  H515     1.0000 0.17410  0.65500  0.56150  Biso   1.000  H
  H516     1.0000 0.15760  0.69050  0.57170  Biso   1.000  H
  H517     1.0000 0.43638  0.59921  0.62980  Biso   1.000  H
  H518     1.0000 0.43616  0.62691  0.59844  Biso   1.000  H
  H519     1.0000 0.18089  0.69748  0.58648  Biso   1.000  H
  H520     1.0000 0.19353  0.65614  0.57110  Biso   1.000  H
  H521     1.0000 0.15298  0.67378  0.55883  Biso   1.000  H
  H522     1.0000 0.43627  0.62836  0.59878  Biso   1.000  H
  H523     1.0000 0.69420  0.18040  0.58580  Biso   1.000  H
  H524     1.0000 0.67410  0.15500  0.56150  Biso   1.000  H
  H525     1.0000 0.65760  0.19050  0.57170  Biso   1.000  H
  H526     1.0000 0.93638  0.09921  0.62980  Biso   1.000  H
  H527     1.0000 0.93616  0.12691  0.59844  Biso   1.000  H
  H528     1.0000 0.68089  0.19748  0.58648  Biso   1.000  H
  H529     1.0000 0.69353  0.15614  0.57110  Biso   1.000  H
  H530     1.0000 0.65298  0.17378  0.55883  Biso   1.000  H
  H531     1.0000 0.93627  0.12836  0.59878  Biso   1.000  H
  H532     1.0000 0.69420  0.68040  0.08580  Biso   1.000  H
  H533     1.0000 0.67410  0.65500  0.06150  Biso   1.000  H
  H534     1.0000 0.65760  0.69050  0.07170  Biso   1.000  H
  H535     1.0000 0.93638  0.59921  0.12980  Biso   1.000  H
  H536     1.0000 0.93616  0.62691  0.09844  Biso   1.000  H
  H537     1.0000 0.68089  0.69748  0.08648  Biso   1.000  H
  H538     1.0000 0.69353  0.65614  0.07110  Biso   1.000  H
  H539     1.0000 0.65298  0.67378  0.05883  Biso   1.000  H
  H540     1.0000 0.93627  0.62836  0.09878  Biso   1.000  H
  H541     1.0000 0.80580  0.81960  0.08580  Biso   1.000  H
  H542     1.0000 0.82590  0.84500  0.06150  Biso   1.000  H
  H543     1.0000 0.84240  0.80950  0.07170  Biso   1.000  H
  H544     1.0000 0.56362  0.90079  0.12980  Biso   1.000  H
  H545     1.0000 0.56384  0.87309  0.09844  Biso   1.000  H
  H546     1.0000 0.81911  0.80252  0.08648  Biso   1.000  H
  H547     1.0000 0.80647  0.84386  0.07110  Biso   1.000  H
  H548     1.0000 0.84702  0.82622  0.05883  Biso   1.000  H
  H549     1.0000 0.56373  0.87164  0.09878  Biso   1.000  H
  H550     1.0000 0.80580  0.31960  0.58580  Biso   1.000  H
  H551     1.0000 0.82590  0.34500  0.56150  Biso   1.000  H
  H552     1.0000 0.84240  0.30950  0.57170  Biso   1.000  H
  H553     1.0000 0.56362  0.40079  0.62980  Biso   1.000  H
  H554     1.0000 0.56384  0.37309  0.59844  Biso   1.000  H
  H555     1.0000 0.81911  0.30252  0.58648  Biso   1.000  H
  H556     1.0000 0.80647  0.34386  0.57110  Biso   1.000  H
  H557     1.0000 0.84702  0.32622  0.55883  Biso   1.000  H
  H558     1.0000 0.56373  0.37164  0.59878  Biso   1.000  H
  H559     1.0000 0.30580  0.81960  0.58580  Biso   1.000  H
  H560     1.0000 0.32590  0.84500  0.56150  Biso   1.000  H
  H561     1.0000 0.34240  0.80950  0.57170  Biso   1.000  H
  H562     1.0000 0.06362  0.90079  0.62980  Biso   1.000  H
  H563     1.0000 0.06384  0.87309  0.59844  Biso   1.000  H
  H564     1.0000 0.31911  0.80252  0.58648  Biso   1.000  H
  H565     1.0000 0.30647  0.84386  0.57110  Biso   1.000  H
  H566     1.0000 0.34702  0.82622  0.55883  Biso   1.000  H
  H567     1.0000 0.06373  0.87164  0.59878  Biso   1.000  H
  H568     1.0000 0.30580  0.31960  0.08580  Biso   1.000  H
  H569     1.0000 0.32590  0.34500  0.06150  Biso   1.000  H
  H570     1.0000 0.34240  0.30950  0.07170  Biso   1.000  H
  H571     1.0000 0.06362  0.40079  0.12980  Biso   1.000  H
  H572     1.0000 0.06384  0.37309  0.09844  Biso   1.000  H
  H573     1.0000 0.31911  0.30252  0.08648  Biso   1.000  H
  H574     1.0000 0.30647  0.34386  0.07110  Biso   1.000  H
  H575     1.0000 0.34702  0.32622  0.05883  Biso   1.000  H
  H576     1.0000 0.06373  0.37164  0.09878  Biso   1.000  H
  H577     1.0000 0.81960  0.08580  0.80580  Biso   1.000  H
  H578     1.0000 0.84500  0.06150  0.82590  Biso   1.000  H
  H579     1.0000 0.80950  0.07170  0.84240  Biso   1.000  H
  H580     1.0000 0.90079  0.12980  0.56362  Biso   1.000  H
  H581     1.0000 0.87309  0.09844  0.56384  Biso   1.000  H
  H582     1.0000 0.80252  0.08648  0.81911  Biso   1.000  H
  H583     1.0000 0.84386  0.07110  0.80647  Biso   1.000  H
  H584     1.0000 0.82622  0.05883  0.84702  Biso   1.000  H
  H585     1.0000 0.87164  0.09878  0.56373  Biso   1.000  H
  H586     1.0000 0.81960  0.58580  0.30580  Biso   1.000  H
  H587     1.0000 0.84500  0.56150  0.32590  Biso   1.000  H
  H588     1.0000 0.80950  0.57170  0.34240  Biso   1.000  H
  H589     1.0000 0.90079  0.62980  0.06362  Biso   1.000  H
  H590     1.0000 0.87309  0.59844  0.06384  Biso   1.000  H
  H591     1.0000 0.80252  0.58648  0.31911  Biso   1.000  H
  H592     1.0000 0.84386  0.57110  0.30647  Biso   1.000  H
  H593     1.0000 0.82622  0.55883  0.34702  Biso   1.000  H
  H594     1.0000 0.87164  0.59878  0.06373  Biso   1.000  H
  H595     1.0000 0.31960  0.08580  0.30580  Biso   1.000  H
  H596     1.0000 0.34500  0.06150  0.32590  Biso   1.000  H
  H597     1.0000 0.30950  0.07170  0.34240  Biso   1.000  H
  H598     1.0000 0.40079  0.12980  0.06362  Biso   1.000  H
  H599     1.0000 0.37309  0.09844  0.06384  Biso   1.000  H
  H600     1.0000 0.30252  0.08648  0.31911  Biso   1.000  H
  H601     1.0000 0.34386  0.07110  0.30647  Biso   1.000  H
  H602     1.0000 0.32622  0.05883  0.34702  Biso   1.000  H
  H603     1.0000 0.37164  0.09878  0.06373  Biso   1.000  H
  H604     1.0000 0.31960  0.58580  0.80580  Biso   1.000  H
  H605     1.0000 0.34500  0.56150  0.82590  Biso   1.000  H
  H606     1.0000 0.30950  0.57170  0.84240  Biso   1.000  H
  H607     1.0000 0.40079  0.62980  0.56362  Biso   1.000  H
  H608     1.0000 0.37309  0.59844  0.56384  Biso   1.000  H
  H609     1.0000 0.30252  0.58648  0.81911  Biso   1.000  H
  H610     1.0000 0.34386  0.57110  0.80647  Biso   1.000  H
  H611     1.0000 0.32622  0.55883  0.84702  Biso   1.000  H
  H612     1.0000 0.37164  0.59878  0.56373  Biso   1.000  H
  H613     1.0000 0.18040  0.08580  0.19420  Biso   1.000  H
  H614     1.0000 0.15500  0.06150  0.17410  Biso   1.000  H
  H615     1.0000 0.19050  0.07170  0.15760  Biso   1.000  H
  H616     1.0000 0.09921  0.12980  0.43638  Biso   1.000  H
  H617     1.0000 0.12691  0.09844  0.43616  Biso   1.000  H
  H618     1.0000 0.19748  0.08648  0.18089  Biso   1.000  H
  H619     1.0000 0.15614  0.07110  0.19353  Biso   1.000  H
  H620     1.0000 0.17378  0.05883  0.15298  Biso   1.000  H
  H621     1.0000 0.12836  0.09878  0.43627  Biso   1.000  H
  H622     1.0000 0.18040  0.58580  0.69420  Biso   1.000  H
  H623     1.0000 0.15500  0.56150  0.67410  Biso   1.000  H
  H624     1.0000 0.19050  0.57170  0.65760  Biso   1.000  H
  H625     1.0000 0.09921  0.62980  0.93638  Biso   1.000  H
  H626     1.0000 0.12691  0.59844  0.93616  Biso   1.000  H
  H627     1.0000 0.19748  0.58648  0.68089  Biso   1.000  H
  H628     1.0000 0.15614  0.57110  0.69353  Biso   1.000  H
  H629     1.0000 0.17378  0.55883  0.65298  Biso   1.000  H
  H630     1.0000 0.12836  0.59878  0.93627  Biso   1.000  H
  H631     1.0000 0.68040  0.08580  0.69420  Biso   1.000  H
  H632     1.0000 0.65500  0.06150  0.67410  Biso   1.000  H
  H633     1.0000 0.69050  0.07170  0.65760  Biso   1.000  H
  H634     1.0000 0.59921  0.12980  0.93638  Biso   1.000  H
  H635     1.0000 0.62691  0.09844  0.93616  Biso   1.000  H
  H636     1.0000 0.69748  0.08648  0.68089  Biso   1.000  H
  H637     1.0000 0.65614  0.07110  0.69353  Biso   1.000  H
  H638     1.0000 0.67378  0.05883  0.65298  Biso   1.000  H
  H639     1.0000 0.62836  0.09878  0.93627  Biso   1.000  H
  H640     1.0000 0.68040  0.58580  0.19420  Biso   1.000  H
  H641     1.0000 0.65500  0.56150  0.17410  Biso   1.000  H
  H642     1.0000 0.69050  0.57170  0.15760  Biso   1.000  H
  H643     1.0000 0.59921  0.62980  0.43638  Biso   1.000  H
  H644     1.0000 0.62691  0.59844  0.43616  Biso   1.000  H
  H645     1.0000 0.69748  0.58648  0.18089  Biso   1.000  H
  H646     1.0000 0.65614  0.57110  0.19353  Biso   1.000  H
  H647     1.0000 0.67378  0.55883  0.15298  Biso   1.000  H
  H648     1.0000 0.62836  0.59878  0.43627  Biso   1.000  H
  H649     1.0000 0.18040  0.91420  0.80580  Biso   1.000  H
  H650     1.0000 0.15500  0.93850  0.82590  Biso   1.000  H
  H651     1.0000 0.19050  0.92830  0.84240  Biso   1.000  H
  H652     1.0000 0.09921  0.87020  0.56362  Biso   1.000  H
  H653     1.0000 0.12691  0.90156  0.56384  Biso   1.000  H
  H654     1.0000 0.19748  0.91352  0.81911  Biso   1.000  H
  H655     1.0000 0.15614  0.92890  0.80647  Biso   1.000  H
  H656     1.0000 0.17378  0.94117  0.84702  Biso   1.000  H
  H657     1.0000 0.12836  0.90122  0.56373  Biso   1.000  H
  H658     1.0000 0.18040  0.41420  0.30580  Biso   1.000  H
  H659     1.0000 0.15500  0.43850  0.32590  Biso   1.000  H
  H660     1.0000 0.19050  0.42830  0.34240  Biso   1.000  H
  H661     1.0000 0.09921  0.37020  0.06362  Biso   1.000  H
  H662     1.0000 0.12691  0.40156  0.06384  Biso   1.000  H
  H663     1.0000 0.19748  0.41352  0.31911  Biso   1.000  H
  H664     1.0000 0.15614  0.42890  0.30647  Biso   1.000  H
  H665     1.0000 0.17378  0.44117  0.34702  Biso   1.000  H
  H666     1.0000 0.12836  0.40122  0.06373  Biso   1.000  H
  H667     1.0000 0.68040  0.91420  0.30580  Biso   1.000  H
  H668     1.0000 0.65500  0.93850  0.32590  Biso   1.000  H
  H669     1.0000 0.69050  0.92830  0.34240  Biso   1.000  H
  H670     1.0000 0.59921  0.87020  0.06362  Biso   1.000  H
  H671     1.0000 0.62691  0.90156  0.06384  Biso   1.000  H
  H672     1.0000 0.69748  0.91352  0.31911  Biso   1.000  H
  H673     1.0000 0.65614  0.92890  0.30647  Biso   1.000  H
  H674     1.0000 0.67378  0.94117  0.34702  Biso   1.000  H
  H675     1.0000 0.62836  0.90122  0.06373  Biso   1.000  H
  H676     1.0000 0.68040  0.41420  0.80580  Biso   1.000  H
  H677     1.0000 0.65500  0.43850  0.82590  Biso   1.000  H
  H678     1.0000 0.69050  0.42830  0.84240  Biso   1.000  H
  H679     1.0000 0.59921  0.37020  0.56362  Biso   1.000  H
  H680     1.0000 0.62691  0.40156  0.56384  Biso   1.000  H
  H681     1.0000 0.69748  0.41352  0.81911  Biso   1.000  H
  H682     1.0000 0.65614  0.42890  0.80647  Biso   1.000  H
  H683     1.0000 0.67378  0.44117  0.84702  Biso   1.000  H
  H684     1.0000 0.62836  0.40122  0.56373  Biso   1.000  H
  H685     1.0000 0.81960  0.91420  0.19420  Biso   1.000  H
  H686     1.0000 0.84500  0.93850  0.17410  Biso   1.000  H
  H687     1.0000 0.80950  0.92830  0.15760  Biso   1.000  H
  H688     1.0000 0.90079  0.87020  0.43638  Biso   1.000  H
  H689     1.0000 0.87309  0.90156  0.43616  Biso   1.000  H
  H690     1.0000 0.80252  0.91352  0.18089  Biso   1.000  H
  H691     1.0000 0.84386  0.92890  0.19353  Biso   1.000  H
  H692     1.0000 0.82622  0.94117  0.15298  Biso   1.000  H
  H693     1.0000 0.87164  0.90122  0.43627  Biso   1.000  H
  H694     1.0000 0.81960  0.41420  0.69420  Biso   1.000  H
  H695     1.0000 0.84500  0.43850  0.67410  Biso   1.000  H
  H696     1.0000 0.80950  0.42830  0.65760  Biso   1.000  H
  H697     1.0000 0.90079  0.37020  0.93638  Biso   1.000  H
  H698     1.0000 0.87309  0.40156  0.93616  Biso   1.000  H
  H699     1.0000 0.80252  0.41352  0.68089  Biso   1.000  H
  H700     1.0000 0.84386  0.42890  0.69353  Biso   1.000  H
  H701     1.0000 0.82622  0.44117  0.65298  Biso   1.000  H
  H702     1.0000 0.87164  0.40122  0.93627  Biso   1.000  H
  H703     1.0000 0.31960  0.91420  0.69420  Biso   1.000  H
  H704     1.0000 0.34500  0.93850  0.67410  Biso   1.000  H
  H705     1.0000 0.30950  0.92830  0.65760  Biso   1.000  H
  H706     1.0000 0.40079  0.87020  0.93638  Biso   1.000  H
  H707     1.0000 0.37309  0.90156  0.93616  Biso   1.000  H
  H708     1.0000 0.30252  0.91352  0.68089  Biso   1.000  H
  H709     1.0000 0.34386  0.92890  0.69353  Biso   1.000  H
  H710     1.0000 0.32622  0.94117  0.65298  Biso   1.000  H
  H711     1.0000 0.37164  0.90122  0.93627  Biso   1.000  H
  H712     1.0000 0.31960  0.41420  0.19420  Biso   1.000  H
  H713     1.0000 0.34500  0.43850  0.17410  Biso   1.000  H
  H714     1.0000 0.30950  0.42830  0.15760  Biso   1.000  H
  H715     1.0000 0.40079  0.37020  0.43638  Biso   1.000  H
  H716     1.0000 0.37309  0.40156  0.43616  Biso   1.000  H
  H717     1.0000 0.30252  0.41352  0.18089  Biso   1.000  H
  H718     1.0000 0.34386  0.42890  0.19353  Biso   1.000  H
  H719     1.0000 0.32622  0.44117  0.15298  Biso   1.000  H
  H720     1.0000 0.37164  0.40122  0.43627  Biso   1.000  H
  H721     1.0000 0.08580  0.19420  0.18040  Biso   1.000  H
  H722     1.0000 0.06150  0.17410  0.15500  Biso   1.000  H
  H723     1.0000 0.07170  0.15760  0.19050  Biso   1.000  H
  H724     1.0000 0.12980  0.43638  0.09921  Biso   1.000  H
  H725     1.0000 0.09844  0.43616  0.12691  Biso   1.000  H
  H726     1.0000 0.08648  0.18089  0.19748  Biso   1.000  H
  H727     1.0000 0.07110  0.19353  0.15614  Biso   1.000  H
  H728     1.0000 0.05883  0.15298  0.17378  Biso   1.000  H
  H729     1.0000 0.09878  0.43627  0.12836  Biso   1.000  H
  H730     1.0000 0.08580  0.69420  0.68040  Biso   1.000  H
  H731     1.0000 0.06150  0.67410  0.65500  Biso   1.000  H
  H732     1.0000 0.07170  0.65760  0.69050  Biso   1.000  H
  H733     1.0000 0.12980  0.93638  0.59921  Biso   1.000  H
  H734     1.0000 0.09844  0.93616  0.62691  Biso   1.000  H
  H735     1.0000 0.08648  0.68089  0.69748  Biso   1.000  H
  H736     1.0000 0.07110  0.69353  0.65614  Biso   1.000  H
  H737     1.0000 0.05883  0.65298  0.67378  Biso   1.000  H
  H738     1.0000 0.09878  0.93627  0.62836  Biso   1.000  H
  H739     1.0000 0.58580  0.19420  0.68040  Biso   1.000  H
  H740     1.0000 0.56150  0.17410  0.65500  Biso   1.000  H
  H741     1.0000 0.57170  0.15760  0.69050  Biso   1.000  H
  H742     1.0000 0.62980  0.43638  0.59921  Biso   1.000  H
  H743     1.0000 0.59844  0.43616  0.62691  Biso   1.000  H
  H744     1.0000 0.58648  0.18089  0.69748  Biso   1.000  H
  H745     1.0000 0.57110  0.19353  0.65614  Biso   1.000  H
  H746     1.0000 0.55883  0.15298  0.67378  Biso   1.000  H
  H747     1.0000 0.59878  0.43627  0.62836  Biso   1.000  H
  H748     1.0000 0.58580  0.69420  0.18040  Biso   1.000  H
  H749     1.0000 0.56150  0.67410  0.15500  Biso   1.000  H
  H750     1.0000 0.57170  0.65760  0.19050  Biso   1.000  H
  H751     1.0000 0.62980  0.93638  0.09921  Biso   1.000  H
  H752     1.0000 0.59844  0.93616  0.12691  Biso   1.000  H
  H753     1.0000 0.58648  0.68089  0.19748  Biso   1.000  H
  H754     1.0000 0.57110  0.69353  0.15614  Biso   1.000  H
  H755     1.0000 0.55883  0.65298  0.17378  Biso   1.000  H
  H756     1.0000 0.59878  0.93627  0.12836  Biso   1.000  H
  H757     1.0000 0.08580  0.80580  0.81960  Biso   1.000  H
  H758     1.0000 0.06150  0.82590  0.84500  Biso   1.000  H
  H759     1.0000 0.07170  0.84240  0.80950  Biso   1.000  H
  H760     1.0000 0.12980  0.56362  0.90079  Biso   1.000  H
  H761     1.0000 0.09844  0.56384  0.87309  Biso   1.000  H
  H762     1.0000 0.08648  0.81911  0.80252  Biso   1.000  H
  H763     1.0000 0.07110  0.80647  0.84386  Biso   1.000  H
  H764     1.0000 0.05883  0.84702  0.82622  Biso   1.000  H
  H765     1.0000 0.09878  0.56373  0.87164  Biso   1.000  H
  H766     1.0000 0.08580  0.30580  0.31960  Biso   1.000  H
  H767     1.0000 0.06150  0.32590  0.34500  Biso   1.000  H
  H768     1.0000 0.07170  0.34240  0.30950  Biso   1.000  H
  H769     1.0000 0.12980  0.06362  0.40079  Biso   1.000  H
  H770     1.0000 0.09844  0.06384  0.37309  Biso   1.000  H
  H771     1.0000 0.08648  0.31911  0.30252  Biso   1.000  H
  H772     1.0000 0.07110  0.30647  0.34386  Biso   1.000  H
  H773     1.0000 0.05883  0.34702  0.32622  Biso   1.000  H
  H774     1.0000 0.09878  0.06373  0.37164  Biso   1.000  H
  H775     1.0000 0.58580  0.80580  0.31960  Biso   1.000  H
  H776     1.0000 0.56150  0.82590  0.34500  Biso   1.000  H
  H777     1.0000 0.57170  0.84240  0.30950  Biso   1.000  H
  H778     1.0000 0.62980  0.56362  0.40079  Biso   1.000  H
  H779     1.0000 0.59844  0.56384  0.37309  Biso   1.000  H
  H780     1.0000 0.58648  0.81911  0.30252  Biso   1.000  H
  H781     1.0000 0.57110  0.80647  0.34386  Biso   1.000  H
  H782     1.0000 0.55883  0.84702  0.32622  Biso   1.000  H
  H783     1.0000 0.59878  0.56373  0.37164  Biso   1.000  H
  H784     1.0000 0.58580  0.30580  0.81960  Biso   1.000  H
  H785     1.0000 0.56150  0.32590  0.84500  Biso   1.000  H
  H786     1.0000 0.57170  0.34240  0.80950  Biso   1.000  H
  H787     1.0000 0.62980  0.06362  0.90079  Biso   1.000  H
  H788     1.0000 0.59844  0.06384  0.87309  Biso   1.000  H
  H789     1.0000 0.58648  0.31911  0.80252  Biso   1.000  H
  H790     1.0000 0.57110  0.30647  0.84386  Biso   1.000  H
  H791     1.0000 0.55883  0.34702  0.82622  Biso   1.000  H
  H792     1.0000 0.59878  0.06373  0.87164  Biso   1.000  H
  H793     1.0000 0.91420  0.19420  0.81960  Biso   1.000  H
  H794     1.0000 0.93850  0.17410  0.84500  Biso   1.000  H
  H795     1.0000 0.92830  0.15760  0.80950  Biso   1.000  H
  H796     1.0000 0.87020  0.43638  0.90079  Biso   1.000  H
  H797     1.0000 0.90156  0.43616  0.87309  Biso   1.000  H
  H798     1.0000 0.91352  0.18089  0.80252  Biso   1.000  H
  H799     1.0000 0.92890  0.19353  0.84386  Biso   1.000  H
  H800     1.0000 0.94117  0.15298  0.82622  Biso   1.000  H
  H801     1.0000 0.90122  0.43627  0.87164  Biso   1.000  H
  H802     1.0000 0.91420  0.69420  0.31960  Biso   1.000  H
  H803     1.0000 0.93850  0.67410  0.34500  Biso   1.000  H
  H804     1.0000 0.92830  0.65760  0.30950  Biso   1.000  H
  H805     1.0000 0.87020  0.93638  0.40079  Biso   1.000  H
  H806     1.0000 0.90156  0.93616  0.37309  Biso   1.000  H
  H807     1.0000 0.91352  0.68089  0.30252  Biso   1.000  H
  H808     1.0000 0.92890  0.69353  0.34386  Biso   1.000  H
  H809     1.0000 0.94117  0.65298  0.32622  Biso   1.000  H
  H810     1.0000 0.90122  0.93627  0.37164  Biso   1.000  H
  H811     1.0000 0.41420  0.19420  0.31960  Biso   1.000  H
  H812     1.0000 0.43850  0.17410  0.34500  Biso   1.000  H
  H813     1.0000 0.42830  0.15760  0.30950  Biso   1.000  H
  H814     1.0000 0.37020  0.43638  0.40079  Biso   1.000  H
  H815     1.0000 0.40156  0.43616  0.37309  Biso   1.000  H
  H816     1.0000 0.41352  0.18089  0.30252  Biso   1.000  H
  H817     1.0000 0.42890  0.19353  0.34386  Biso   1.000  H
  H818     1.0000 0.44117  0.15298  0.32622  Biso   1.000  H
  H819     1.0000 0.40122  0.43627  0.37164  Biso   1.000  H
  H820     1.0000 0.41420  0.69420  0.81960  Biso   1.000  H
  H821     1.0000 0.43850  0.67410  0.84500  Biso   1.000  H
  H822     1.0000 0.42830  0.65760  0.80950  Biso   1.000  H
  H823     1.0000 0.37020  0.93638  0.90079  Biso   1.000  H
  H824     1.0000 0.40156  0.93616  0.87309  Biso   1.000  H
  H825     1.0000 0.41352  0.68089  0.80252  Biso   1.000  H
  H826     1.0000 0.42890  0.69353  0.84386  Biso   1.000  H
  H827     1.0000 0.44117  0.65298  0.82622  Biso   1.000  H
  H828     1.0000 0.40122  0.93627  0.87164  Biso   1.000  H
  H829     1.0000 0.91420  0.80580  0.18040  Biso   1.000  H
  H830     1.0000 0.93850  0.82590  0.15500  Biso   1.000  H
  H831     1.0000 0.92830  0.84240  0.19050  Biso   1.000  H
  H832     1.0000 0.87020  0.56362  0.09921  Biso   1.000  H
  H833     1.0000 0.90156  0.56384  0.12691  Biso   1.000  H
  H834     1.0000 0.91352  0.81911  0.19748  Biso   1.000  H
  H835     1.0000 0.92890  0.80647  0.15614  Biso   1.000  H
  H836     1.0000 0.94117  0.84702  0.17378  Biso   1.000  H
  H837     1.0000 0.90122  0.56373  0.12836  Biso   1.000  H
  H838     1.0000 0.91420  0.30580  0.68040  Biso   1.000  H
  H839     1.0000 0.93850  0.32590  0.65500  Biso   1.000  H
  H840     1.0000 0.92830  0.34240  0.69050  Biso   1.000  H
  H841     1.0000 0.87020  0.06362  0.59921  Biso   1.000  H
  H842     1.0000 0.90156  0.06384  0.62691  Biso   1.000  H
  H843     1.0000 0.91352  0.31911  0.69748  Biso   1.000  H
  H844     1.0000 0.92890  0.30647  0.65614  Biso   1.000  H
  H845     1.0000 0.94117  0.34702  0.67378  Biso   1.000  H
  H846     1.0000 0.90122  0.06373  0.62836  Biso   1.000  H
  H847     1.0000 0.41420  0.80580  0.68040  Biso   1.000  H
  H848     1.0000 0.43850  0.82590  0.65500  Biso   1.000  H
  H849     1.0000 0.42830  0.84240  0.69050  Biso   1.000  H
  H850     1.0000 0.37020  0.56362  0.59921  Biso   1.000  H
  H851     1.0000 0.40156  0.56384  0.62691  Biso   1.000  H
  H852     1.0000 0.41352  0.81911  0.69748  Biso   1.000  H
  H853     1.0000 0.42890  0.80647  0.65614  Biso   1.000  H
  H854     1.0000 0.44117  0.84702  0.67378  Biso   1.000  H
  H855     1.0000 0.40122  0.56373  0.62836  Biso   1.000  H
  H856     1.0000 0.41420  0.30580  0.18040  Biso   1.000  H
  H857     1.0000 0.43850  0.32590  0.15500  Biso   1.000  H
  H858     1.0000 0.42830  0.34240  0.19050  Biso   1.000  H
  H859     1.0000 0.37020  0.06362  0.09921  Biso   1.000  H
  H860     1.0000 0.40156  0.06384  0.12691  Biso   1.000  H
  H861     1.0000 0.41352  0.31911  0.19748  Biso   1.000  H
  H862     1.0000 0.42890  0.30647  0.15614  Biso   1.000  H
  H863     1.0000 0.44117  0.34702  0.17378  Biso   1.000  H
  H864     1.0000 0.40122  0.06373  0.12836  Biso   1.000  H
  H865     1.0000 0.18040  0.80580  0.91420  Biso   1.000  H
  H866     1.0000 0.15500  0.82590  0.93850  Biso   1.000  H
  H867     1.0000 0.19050  0.84240  0.92830  Biso   1.000  H
  H868     1.0000 0.09921  0.56362  0.87020  Biso   1.000  H
  H869     1.0000 0.12691  0.56384  0.90156  Biso   1.000  H
  H870     1.0000 0.19748  0.81911  0.91352  Biso   1.000  H
  H871     1.0000 0.15614  0.80647  0.92890  Biso   1.000  H
  H872     1.0000 0.17378  0.84702  0.94117  Biso   1.000  H
  H873     1.0000 0.12836  0.56373  0.90122  Biso   1.000  H
  H874     1.0000 0.18040  0.30580  0.41420  Biso   1.000  H
  H875     1.0000 0.15500  0.32590  0.43850  Biso   1.000  H
  H876     1.0000 0.19050  0.34240  0.42830  Biso   1.000  H
  H877     1.0000 0.09921  0.06362  0.37020  Biso   1.000  H
  H878     1.0000 0.12691  0.06384  0.40156  Biso   1.000  H
  H879     1.0000 0.19748  0.31911  0.41352  Biso   1.000  H
  H880     1.0000 0.15614  0.30647  0.42890  Biso   1.000  H
  H881     1.0000 0.17378  0.34702  0.44117  Biso   1.000  H
  H882     1.0000 0.12836  0.06373  0.40122  Biso   1.000  H
  H883     1.0000 0.68040  0.80580  0.41420  Biso   1.000  H
  H884     1.0000 0.65500  0.82590  0.43850  Biso   1.000  H
  H885     1.0000 0.69050  0.84240  0.42830  Biso   1.000  H
  H886     1.0000 0.59921  0.56362  0.37020  Biso   1.000  H
  H887     1.0000 0.62691  0.56384  0.40156  Biso   1.000  H
  H888     1.0000 0.69748  0.81911  0.41352  Biso   1.000  H
  H889     1.0000 0.65614  0.80647  0.42890  Biso   1.000  H
  H890     1.0000 0.67378  0.84702  0.44117  Biso   1.000  H
  H891     1.0000 0.62836  0.56373  0.40122  Biso   1.000  H
  H892     1.0000 0.68040  0.30580  0.91420  Biso   1.000  H
  H893     1.0000 0.65500  0.32590  0.93850  Biso   1.000  H
  H894     1.0000 0.69050  0.34240  0.92830  Biso   1.000  H
  H895     1.0000 0.59921  0.06362  0.87020  Biso   1.000  H
  H896     1.0000 0.62691  0.06384  0.90156  Biso   1.000  H
  H897     1.0000 0.69748  0.31911  0.91352  Biso   1.000  H
  H898     1.0000 0.65614  0.30647  0.92890  Biso   1.000  H
  H899     1.0000 0.67378  0.34702  0.94117  Biso   1.000  H
  H900     1.0000 0.62836  0.06373  0.90122  Biso   1.000  H
  H901     1.0000 0.81960  0.19420  0.91420  Biso   1.000  H
  H902     1.0000 0.84500  0.17410  0.93850  Biso   1.000  H
  H903     1.0000 0.80950  0.15760  0.92830  Biso   1.000  H
  H904     1.0000 0.90079  0.43638  0.87020  Biso   1.000  H
  H905     1.0000 0.87309  0.43616  0.90156  Biso   1.000  H
  H906     1.0000 0.80252  0.18089  0.91352  Biso   1.000  H
  H907     1.0000 0.84386  0.19353  0.92890  Biso   1.000  H
  H908     1.0000 0.82622  0.15298  0.94117  Biso   1.000  H
  H909     1.0000 0.87164  0.43627  0.90122  Biso   1.000  H
  H910     1.0000 0.81960  0.69420  0.41420  Biso   1.000  H
  H911     1.0000 0.84500  0.67410  0.43850  Biso   1.000  H
  H912     1.0000 0.80950  0.65760  0.42830  Biso   1.000  H
  H913     1.0000 0.90079  0.93638  0.37020  Biso   1.000  H
  H914     1.0000 0.87309  0.93616  0.40156  Biso   1.000  H
  H915     1.0000 0.80252  0.68089  0.41352  Biso   1.000  H
  H916     1.0000 0.84386  0.69353  0.42890  Biso   1.000  H
  H917     1.0000 0.82622  0.65298  0.44117  Biso   1.000  H
  H918     1.0000 0.87164  0.93627  0.40122  Biso   1.000  H
  H919     1.0000 0.31960  0.19420  0.41420  Biso   1.000  H
  H920     1.0000 0.34500  0.17410  0.43850  Biso   1.000  H
  H921     1.0000 0.30950  0.15760  0.42830  Biso   1.000  H
  H922     1.0000 0.40079  0.43638  0.37020  Biso   1.000  H
  H923     1.0000 0.37309  0.43616  0.40156  Biso   1.000  H
  H924     1.0000 0.30252  0.18089  0.41352  Biso   1.000  H
  H925     1.0000 0.34386  0.19353  0.42890  Biso   1.000  H
  H926     1.0000 0.32622  0.15298  0.44117  Biso   1.000  H
  H927     1.0000 0.37164  0.43627  0.40122  Biso   1.000  H
  H928     1.0000 0.31960  0.69420  0.91420  Biso   1.000  H
  H929     1.0000 0.34500  0.67410  0.93850  Biso   1.000  H
  H930     1.0000 0.30950  0.65760  0.92830  Biso   1.000  H
  H931     1.0000 0.40079  0.93638  0.87020  Biso   1.000  H
  H932     1.0000 0.37309  0.93616  0.90156  Biso   1.000  H
  H933     1.0000 0.30252  0.68089  0.91352  Biso   1.000  H
  H934     1.0000 0.34386  0.69353  0.92890  Biso   1.000  H
  H935     1.0000 0.32622  0.65298  0.94117  Biso   1.000  H
  H936     1.0000 0.37164  0.93627  0.90122  Biso   1.000  H
  H937     1.0000 0.81960  0.80580  0.08580  Biso   1.000  H
  H938     1.0000 0.84500  0.82590  0.06150  Biso   1.000  H
  H939     1.0000 0.80950  0.84240  0.07170  Biso   1.000  H
  H940     1.0000 0.90079  0.56362  0.12980  Biso   1.000  H
  H941     1.0000 0.87309  0.56384  0.09844  Biso   1.000  H
  H942     1.0000 0.80252  0.81911  0.08648  Biso   1.000  H
  H943     1.0000 0.84386  0.80647  0.07110  Biso   1.000  H
  H944     1.0000 0.82622  0.84702  0.05883  Biso   1.000  H
  H945     1.0000 0.87164  0.56373  0.09878  Biso   1.000  H
  H946     1.0000 0.81960  0.30580  0.58580  Biso   1.000  H
  H947     1.0000 0.84500  0.32590  0.56150  Biso   1.000  H
  H948     1.0000 0.80950  0.34240  0.57170  Biso   1.000  H
  H949     1.0000 0.90079  0.06362  0.62980  Biso   1.000  H
  H950     1.0000 0.87309  0.06384  0.59844  Biso   1.000  H
  H951     1.0000 0.80252  0.31911  0.58648  Biso   1.000  H
  H952     1.0000 0.84386  0.30647  0.57110  Biso   1.000  H
  H953     1.0000 0.82622  0.34702  0.55883  Biso   1.000  H
  H954     1.0000 0.87164  0.06373  0.59878  Biso   1.000  H
  H955     1.0000 0.31960  0.80580  0.58580  Biso   1.000  H
  H956     1.0000 0.34500  0.82590  0.56150  Biso   1.000  H
  H957     1.0000 0.30950  0.84240  0.57170  Biso   1.000  H
  H958     1.0000 0.40079  0.56362  0.62980  Biso   1.000  H
  H959     1.0000 0.37309  0.56384  0.59844  Biso   1.000  H
  H960     1.0000 0.30252  0.81911  0.58648  Biso   1.000  H
  H961     1.0000 0.34386  0.80647  0.57110  Biso   1.000  H
  H962     1.0000 0.32622  0.84702  0.55883  Biso   1.000  H
  H963     1.0000 0.37164  0.56373  0.59878  Biso   1.000  H
  H964     1.0000 0.31960  0.30580  0.08580  Biso   1.000  H
  H965     1.0000 0.34500  0.32590  0.06150  Biso   1.000  H
  H966     1.0000 0.30950  0.34240  0.07170  Biso   1.000  H
  H967     1.0000 0.40079  0.06362  0.12980  Biso   1.000  H
  H968     1.0000 0.37309  0.06384  0.09844  Biso   1.000  H
  H969     1.0000 0.30252  0.31911  0.08648  Biso   1.000  H
  H970     1.0000 0.34386  0.30647  0.07110  Biso   1.000  H
  H971     1.0000 0.32622  0.34702  0.05883  Biso   1.000  H
  H972     1.0000 0.37164  0.06373  0.09878  Biso   1.000  H
  H973     1.0000 0.18040  0.19420  0.08580  Biso   1.000  H
  H974     1.0000 0.15500  0.17410  0.06150  Biso   1.000  H
  H975     1.0000 0.19050  0.15760  0.07170  Biso   1.000  H
  H976     1.0000 0.09921  0.43638  0.12980  Biso   1.000  H
  H977     1.0000 0.12691  0.43616  0.09844  Biso   1.000  H
  H978     1.0000 0.19748  0.18089  0.08648  Biso   1.000  H
  H979     1.0000 0.15614  0.19353  0.07110  Biso   1.000  H
  H980     1.0000 0.17378  0.15298  0.05883  Biso   1.000  H
  H981     1.0000 0.12836  0.43627  0.09878  Biso   1.000  H
  H982     1.0000 0.18040  0.69420  0.58580  Biso   1.000  H
  H983     1.0000 0.15500  0.67410  0.56150  Biso   1.000  H
  H984     1.0000 0.19050  0.65760  0.57170  Biso   1.000  H
  H985     1.0000 0.09921  0.93638  0.62980  Biso   1.000  H
  H986     1.0000 0.12691  0.93616  0.59844  Biso   1.000  H
  H987     1.0000 0.19748  0.68089  0.58648  Biso   1.000  H
  H988     1.0000 0.15614  0.69353  0.57110  Biso   1.000  H
  H989     1.0000 0.17378  0.65298  0.55883  Biso   1.000  H
  H990     1.0000 0.12836  0.93627  0.59878  Biso   1.000  H
  H991     1.0000 0.68040  0.19420  0.58580  Biso   1.000  H
  H992     1.0000 0.65500  0.17410  0.56150  Biso   1.000  H
  H993     1.0000 0.69050  0.15760  0.57170  Biso   1.000  H
  H994     1.0000 0.59921  0.43638  0.62980  Biso   1.000  H
  H995     1.0000 0.62691  0.43616  0.59844  Biso   1.000  H
  H996     1.0000 0.69748  0.18089  0.58648  Biso   1.000  H
  H997     1.0000 0.65614  0.19353  0.57110  Biso   1.000  H
  H998     1.0000 0.67378  0.15298  0.55883  Biso   1.000  H
  H999     1.0000 0.62836  0.43627  0.59878  Biso   1.000  H
  H1000    1.0000 0.68040  0.69420  0.08580  Biso   1.000  H
  H1001    1.0000 0.65500  0.67410  0.06150  Biso   1.000  H
  H1002    1.0000 0.69050  0.65760  0.07170  Biso   1.000  H
  H1003    1.0000 0.59921  0.93638  0.12980  Biso   1.000  H
  H1004    1.0000 0.62691  0.93616  0.09844  Biso   1.000  H
  H1005    1.0000 0.69748  0.68089  0.08648  Biso   1.000  H
  H1006    1.0000 0.65614  0.69353  0.07110  Biso   1.000  H
  H1007    1.0000 0.67378  0.65298  0.05883  Biso   1.000  H
  H1008    1.0000 0.62836  0.93627  0.09878  Biso   1.000  H
  H1009    1.0000 0.91420  0.18040  0.80580  Biso   1.000  H
  H1010    1.0000 0.93850  0.15500  0.82590  Biso   1.000  H
  H1011    1.0000 0.92830  0.19050  0.84240  Biso   1.000  H
  H1012    1.0000 0.87020  0.09921  0.56362  Biso   1.000  H
  H1013    1.0000 0.90156  0.12691  0.56384  Biso   1.000  H
  H1014    1.0000 0.91352  0.19748  0.81911  Biso   1.000  H
  H1015    1.0000 0.92890  0.15614  0.80647  Biso   1.000  H
  H1016    1.0000 0.94117  0.17378  0.84702  Biso   1.000  H
  H1017    1.0000 0.90122  0.12836  0.56373  Biso   1.000  H
  H1018    1.0000 0.91420  0.68040  0.30580  Biso   1.000  H
  H1019    1.0000 0.93850  0.65500  0.32590  Biso   1.000  H
  H1020    1.0000 0.92830  0.69050  0.34240  Biso   1.000  H
  H1021    1.0000 0.87020  0.59921  0.06362  Biso   1.000  H
  H1022    1.0000 0.90156  0.62691  0.06384  Biso   1.000  H
  H1023    1.0000 0.91352  0.69748  0.31911  Biso   1.000  H
  H1024    1.0000 0.92890  0.65614  0.30647  Biso   1.000  H
  H1025    1.0000 0.94117  0.67378  0.34702  Biso   1.000  H
  H1026    1.0000 0.90122  0.62836  0.06373  Biso   1.000  H
  H1027    1.0000 0.41420  0.18040  0.30580  Biso   1.000  H
  H1028    1.0000 0.43850  0.15500  0.32590  Biso   1.000  H
  H1029    1.0000 0.42830  0.19050  0.34240  Biso   1.000  H
  H1030    1.0000 0.37020  0.09921  0.06362  Biso   1.000  H
  H1031    1.0000 0.40156  0.12691  0.06384  Biso   1.000  H
  H1032    1.0000 0.41352  0.19748  0.31911  Biso   1.000  H
  H1033    1.0000 0.42890  0.15614  0.30647  Biso   1.000  H
  H1034    1.0000 0.44117  0.17378  0.34702  Biso   1.000  H
  H1035    1.0000 0.40122  0.12836  0.06373  Biso   1.000  H
  H1036    1.0000 0.41420  0.68040  0.80580  Biso   1.000  H
  H1037    1.0000 0.43850  0.65500  0.82590  Biso   1.000  H
  H1038    1.0000 0.42830  0.69050  0.84240  Biso   1.000  H
  H1039    1.0000 0.37020  0.59921  0.56362  Biso   1.000  H
  H1040    1.0000 0.40156  0.62691  0.56384  Biso   1.000  H
  H1041    1.0000 0.41352  0.69748  0.81911  Biso   1.000  H
  H1042    1.0000 0.42890  0.65614  0.80647  Biso   1.000  H
  H1043    1.0000 0.44117  0.67378  0.84702  Biso   1.000  H
  H1044    1.0000 0.40122  0.62836  0.56373  Biso   1.000  H
  H1045    1.0000 0.91420  0.81960  0.19420  Biso   1.000  H
  H1046    1.0000 0.93850  0.84500  0.17410  Biso   1.000  H
  H1047    1.0000 0.92830  0.80950  0.15760  Biso   1.000  H
  H1048    1.0000 0.87020  0.90079  0.43638  Biso   1.000  H
  H1049    1.0000 0.90156  0.87309  0.43616  Biso   1.000  H
  H1050    1.0000 0.91352  0.80252  0.18089  Biso   1.000  H
  H1051    1.0000 0.92890  0.84386  0.19353  Biso   1.000  H
  H1052    1.0000 0.94117  0.82622  0.15298  Biso   1.000  H
  H1053    1.0000 0.90122  0.87164  0.43627  Biso   1.000  H
  H1054    1.0000 0.91420  0.31960  0.69420  Biso   1.000  H
  H1055    1.0000 0.93850  0.34500  0.67410  Biso   1.000  H
  H1056    1.0000 0.92830  0.30950  0.65760  Biso   1.000  H
  H1057    1.0000 0.87020  0.40079  0.93638  Biso   1.000  H
  H1058    1.0000 0.90156  0.37309  0.93616  Biso   1.000  H
  H1059    1.0000 0.91352  0.30252  0.68089  Biso   1.000  H
  H1060    1.0000 0.92890  0.34386  0.69353  Biso   1.000  H
  H1061    1.0000 0.94117  0.32622  0.65298  Biso   1.000  H
  H1062    1.0000 0.90122  0.37164  0.93627  Biso   1.000  H
  H1063    1.0000 0.41420  0.81960  0.69420  Biso   1.000  H
  H1064    1.0000 0.43850  0.84500  0.67410  Biso   1.000  H
  H1065    1.0000 0.42830  0.80950  0.65760  Biso   1.000  H
  H1066    1.0000 0.37020  0.90079  0.93638  Biso   1.000  H
  H1067    1.0000 0.40156  0.87309  0.93616  Biso   1.000  H
  H1068    1.0000 0.41352  0.80252  0.68089  Biso   1.000  H
  H1069    1.0000 0.42890  0.84386  0.69353  Biso   1.000  H
  H1070    1.0000 0.44117  0.82622  0.65298  Biso   1.000  H
  H1071    1.0000 0.40122  0.87164  0.93627  Biso   1.000  H
  H1072    1.0000 0.41420  0.31960  0.19420  Biso   1.000  H
  H1073    1.0000 0.43850  0.34500  0.17410  Biso   1.000  H
  H1074    1.0000 0.42830  0.30950  0.15760  Biso   1.000  H
  H1075    1.0000 0.37020  0.40079  0.43638  Biso   1.000  H
  H1076    1.0000 0.40156  0.37309  0.43616  Biso   1.000  H
  H1077    1.0000 0.41352  0.30252  0.18089  Biso   1.000  H
  H1078    1.0000 0.42890  0.34386  0.19353  Biso   1.000  H
  H1079    1.0000 0.44117  0.32622  0.15298  Biso   1.000  H
  H1080    1.0000 0.40122  0.37164  0.43627  Biso   1.000  H
  H1081    1.0000 0.08580  0.81960  0.80580  Biso   1.000  H
  H1082    1.0000 0.06150  0.84500  0.82590  Biso   1.000  H
  H1083    1.0000 0.07170  0.80950  0.84240  Biso   1.000  H
  H1084    1.0000 0.12980  0.90079  0.56362  Biso   1.000  H
  H1085    1.0000 0.09844  0.87309  0.56384  Biso   1.000  H
  H1086    1.0000 0.08648  0.80252  0.81911  Biso   1.000  H
  H1087    1.0000 0.07110  0.84386  0.80647  Biso   1.000  H
  H1088    1.0000 0.05883  0.82622  0.84702  Biso   1.000  H
  H1089    1.0000 0.09878  0.87164  0.56373  Biso   1.000  H
  H1090    1.0000 0.08580  0.31960  0.30580  Biso   1.000  H
  H1091    1.0000 0.06150  0.34500  0.32590  Biso   1.000  H
  H1092    1.0000 0.07170  0.30950  0.34240  Biso   1.000  H
  H1093    1.0000 0.12980  0.40079  0.06362  Biso   1.000  H
  H1094    1.0000 0.09844  0.37309  0.06384  Biso   1.000  H
  H1095    1.0000 0.08648  0.30252  0.31911  Biso   1.000  H
  H1096    1.0000 0.07110  0.34386  0.30647  Biso   1.000  H
  H1097    1.0000 0.05883  0.32622  0.34702  Biso   1.000  H
  H1098    1.0000 0.09878  0.37164  0.06373  Biso   1.000  H
  H1099    1.0000 0.58580  0.81960  0.30580  Biso   1.000  H
  H1100    1.0000 0.56150  0.84500  0.32590  Biso   1.000  H
  H1101    1.0000 0.57170  0.80950  0.34240  Biso   1.000  H
  H1102    1.0000 0.62980  0.90079  0.06362  Biso   1.000  H
  H1103    1.0000 0.59844  0.87309  0.06384  Biso   1.000  H
  H1104    1.0000 0.58648  0.80252  0.31911  Biso   1.000  H
  H1105    1.0000 0.57110  0.84386  0.30647  Biso   1.000  H
  H1106    1.0000 0.55883  0.82622  0.34702  Biso   1.000  H
  H1107    1.0000 0.59878  0.87164  0.06373  Biso   1.000  H
  H1108    1.0000 0.58580  0.31960  0.80580  Biso   1.000  H
  H1109    1.0000 0.56150  0.34500  0.82590  Biso   1.000  H
  H1110    1.0000 0.57170  0.30950  0.84240  Biso   1.000  H
  H1111    1.0000 0.62980  0.40079  0.56362  Biso   1.000  H
  H1112    1.0000 0.59844  0.37309  0.56384  Biso   1.000  H
  H1113    1.0000 0.58648  0.30252  0.81911  Biso   1.000  H
  H1114    1.0000 0.57110  0.34386  0.80647  Biso   1.000  H
  H1115    1.0000 0.55883  0.32622  0.84702  Biso   1.000  H
  H1116    1.0000 0.59878  0.37164  0.56373  Biso   1.000  H
  H1117    1.0000 0.08580  0.18040  0.19420  Biso   1.000  H
  H1118    1.0000 0.06150  0.15500  0.17410  Biso   1.000  H
  H1119    1.0000 0.07170  0.19050  0.15760  Biso   1.000  H
  H1120    1.0000 0.12980  0.09921  0.43638  Biso   1.000  H
  H1121    1.0000 0.09844  0.12691  0.43616  Biso   1.000  H
  H1122    1.0000 0.08648  0.19748  0.18089  Biso   1.000  H
  H1123    1.0000 0.07110  0.15614  0.19353  Biso   1.000  H
  H1124    1.0000 0.05883  0.17378  0.15298  Biso   1.000  H
  H1125    1.0000 0.09878  0.12836  0.43627  Biso   1.000  H
  H1126    1.0000 0.08580  0.68040  0.69420  Biso   1.000  H
  H1127    1.0000 0.06150  0.65500  0.67410  Biso   1.000  H
  H1128    1.0000 0.07170  0.69050  0.65760  Biso   1.000  H
  H1129    1.0000 0.12980  0.59921  0.93638  Biso   1.000  H
  H1130    1.0000 0.09844  0.62691  0.93616  Biso   1.000  H
  H1131    1.0000 0.08648  0.69748  0.68089  Biso   1.000  H
  H1132    1.0000 0.07110  0.65614  0.69353  Biso   1.000  H
  H1133    1.0000 0.05883  0.67378  0.65298  Biso   1.000  H
  H1134    1.0000 0.09878  0.62836  0.93627  Biso   1.000  H
  H1135    1.0000 0.58580  0.18040  0.69420  Biso   1.000  H
  H1136    1.0000 0.56150  0.15500  0.67410  Biso   1.000  H
  H1137    1.0000 0.57170  0.19050  0.65760  Biso   1.000  H
  H1138    1.0000 0.62980  0.09921  0.93638  Biso   1.000  H
  H1139    1.0000 0.59844  0.12691  0.93616  Biso   1.000  H
  H1140    1.0000 0.58648  0.19748  0.68089  Biso   1.000  H
  H1141    1.0000 0.57110  0.15614  0.69353  Biso   1.000  H
  H1142    1.0000 0.55883  0.17378  0.65298  Biso   1.000  H
  H1143    1.0000 0.59878  0.12836  0.93627  Biso   1.000  H
  H1144    1.0000 0.58580  0.68040  0.19420  Biso   1.000  H
  H1145    1.0000 0.56150  0.65500  0.17410  Biso   1.000  H
  H1146    1.0000 0.57170  0.69050  0.15760  Biso   1.000  H
  H1147    1.0000 0.62980  0.59921  0.43638  Biso   1.000  H
  H1148    1.0000 0.59844  0.62691  0.43616  Biso   1.000  H
  H1149    1.0000 0.58648  0.69748  0.18089  Biso   1.000  H
  H1150    1.0000 0.57110  0.65614  0.19353  Biso   1.000  H
  H1151    1.0000 0.55883  0.67378  0.15298  Biso   1.000  H
  H1152    1.0000 0.59878  0.62836  0.43627  Biso   1.000  H
  H1153    1.0000 0.80580  0.91420  0.18040  Biso   1.000  H
  H1154    1.0000 0.82590  0.93850  0.15500  Biso   1.000  H
  H1155    1.0000 0.84240  0.92830  0.19050  Biso   1.000  H
  H1156    1.0000 0.56362  0.87020  0.09921  Biso   1.000  H
  H1157    1.0000 0.56384  0.90156  0.12691  Biso   1.000  H
  H1158    1.0000 0.81911  0.91352  0.19748  Biso   1.000  H
  H1159    1.0000 0.80647  0.92890  0.15614  Biso   1.000  H
  H1160    1.0000 0.84702  0.94117  0.17378  Biso   1.000  H
  H1161    1.0000 0.56373  0.90122  0.12836  Biso   1.000  H
  H1162    1.0000 0.80580  0.41420  0.68040  Biso   1.000  H
  H1163    1.0000 0.82590  0.43850  0.65500  Biso   1.000  H
  H1164    1.0000 0.84240  0.42830  0.69050  Biso   1.000  H
  H1165    1.0000 0.56362  0.37020  0.59921  Biso   1.000  H
  H1166    1.0000 0.56384  0.40156  0.62691  Biso   1.000  H
  H1167    1.0000 0.81911  0.41352  0.69748  Biso   1.000  H
  H1168    1.0000 0.80647  0.42890  0.65614  Biso   1.000  H
  H1169    1.0000 0.84702  0.44117  0.67378  Biso   1.000  H
  H1170    1.0000 0.56373  0.40122  0.62836  Biso   1.000  H
  H1171    1.0000 0.30580  0.91420  0.68040  Biso   1.000  H
  H1172    1.0000 0.32590  0.93850  0.65500  Biso   1.000  H
  H1173    1.0000 0.34240  0.92830  0.69050  Biso   1.000  H
  H1174    1.0000 0.06362  0.87020  0.59921  Biso   1.000  H
  H1175    1.0000 0.06384  0.90156  0.62691  Biso   1.000  H
  H1176    1.0000 0.31911  0.91352  0.69748  Biso   1.000  H
  H1177    1.0000 0.30647  0.92890  0.65614  Biso   1.000  H
  H1178    1.0000 0.34702  0.94117  0.67378  Biso   1.000  H
  H1179    1.0000 0.06373  0.90122  0.62836  Biso   1.000  H
  H1180    1.0000 0.30580  0.41420  0.18040  Biso   1.000  H
  H1181    1.0000 0.32590  0.43850  0.15500  Biso   1.000  H
  H1182    1.0000 0.34240  0.42830  0.19050  Biso   1.000  H
  H1183    1.0000 0.06362  0.37020  0.09921  Biso   1.000  H
  H1184    1.0000 0.06384  0.40156  0.12691  Biso   1.000  H
  H1185    1.0000 0.31911  0.41352  0.19748  Biso   1.000  H
  H1186    1.0000 0.30647  0.42890  0.15614  Biso   1.000  H
  H1187    1.0000 0.34702  0.44117  0.17378  Biso   1.000  H
  H1188    1.0000 0.06373  0.40122  0.12836  Biso   1.000  H
  H1189    1.0000 0.19420  0.91420  0.81960  Biso   1.000  H
  H1190    1.0000 0.17410  0.93850  0.84500  Biso   1.000  H
  H1191    1.0000 0.15760  0.92830  0.80950  Biso   1.000  H
  H1192    1.0000 0.43638  0.87020  0.90079  Biso   1.000  H
  H1193    1.0000 0.43616  0.90156  0.87309  Biso   1.000  H
  H1194    1.0000 0.18089  0.91352  0.80252  Biso   1.000  H
  H1195    1.0000 0.19353  0.92890  0.84386  Biso   1.000  H
  H1196    1.0000 0.15298  0.94117  0.82622  Biso   1.000  H
  H1197    1.0000 0.43627  0.90122  0.87164  Biso   1.000  H
  H1198    1.0000 0.19420  0.41420  0.31960  Biso   1.000  H
  H1199    1.0000 0.17410  0.43850  0.34500  Biso   1.000  H
  H1200    1.0000 0.15760  0.42830  0.30950  Biso   1.000  H
  H1201    1.0000 0.43638  0.37020  0.40079  Biso   1.000  H
  H1202    1.0000 0.43616  0.40156  0.37309  Biso   1.000  H
  H1203    1.0000 0.18089  0.41352  0.30252  Biso   1.000  H
  H1204    1.0000 0.19353  0.42890  0.34386  Biso   1.000  H
  H1205    1.0000 0.15298  0.44117  0.32622  Biso   1.000  H
  H1206    1.0000 0.43627  0.40122  0.37164  Biso   1.000  H
  H1207    1.0000 0.69420  0.91420  0.31960  Biso   1.000  H
  H1208    1.0000 0.67410  0.93850  0.34500  Biso   1.000  H
  H1209    1.0000 0.65760  0.92830  0.30950  Biso   1.000  H
  H1210    1.0000 0.93638  0.87020  0.40079  Biso   1.000  H
  H1211    1.0000 0.93616  0.90156  0.37309  Biso   1.000  H
  H1212    1.0000 0.68089  0.91352  0.30252  Biso   1.000  H
  H1213    1.0000 0.69353  0.92890  0.34386  Biso   1.000  H
  H1214    1.0000 0.65298  0.94117  0.32622  Biso   1.000  H
  H1215    1.0000 0.93627  0.90122  0.37164  Biso   1.000  H
  H1216    1.0000 0.69420  0.41420  0.81960  Biso   1.000  H
  H1217    1.0000 0.67410  0.43850  0.84500  Biso   1.000  H
  H1218    1.0000 0.65760  0.42830  0.80950  Biso   1.000  H
  H1219    1.0000 0.93638  0.37020  0.90079  Biso   1.000  H
  H1220    1.0000 0.93616  0.40156  0.87309  Biso   1.000  H
  H1221    1.0000 0.68089  0.41352  0.80252  Biso   1.000  H
  H1222    1.0000 0.69353  0.42890  0.84386  Biso   1.000  H
  H1223    1.0000 0.65298  0.44117  0.82622  Biso   1.000  H
  H1224    1.0000 0.93627  0.40122  0.87164  Biso   1.000  H
  H1225    1.0000 0.80580  0.08580  0.81960  Biso   1.000  H
  H1226    1.0000 0.82590  0.06150  0.84500  Biso   1.000  H
  H1227    1.0000 0.84240  0.07170  0.80950  Biso   1.000  H
  H1228    1.0000 0.56362  0.12980  0.90079  Biso   1.000  H
  H1229    1.0000 0.56384  0.09844  0.87309  Biso   1.000  H
  H1230    1.0000 0.81911  0.08648  0.80252  Biso   1.000  H
  H1231    1.0000 0.80647  0.07110  0.84386  Biso   1.000  H
  H1232    1.0000 0.84702  0.05883  0.82622  Biso   1.000  H
  H1233    1.0000 0.56373  0.09878  0.87164  Biso   1.000  H
  H1234    1.0000 0.80580  0.58580  0.31960  Biso   1.000  H
  H1235    1.0000 0.82590  0.56150  0.34500  Biso   1.000  H
  H1236    1.0000 0.84240  0.57170  0.30950  Biso   1.000  H
  H1237    1.0000 0.56362  0.62980  0.40079  Biso   1.000  H
  H1238    1.0000 0.56384  0.59844  0.37309  Biso   1.000  H
  H1239    1.0000 0.81911  0.58648  0.30252  Biso   1.000  H
  H1240    1.0000 0.80647  0.57110  0.34386  Biso   1.000  H
  H1241    1.0000 0.84702  0.55883  0.32622  Biso   1.000  H
  H1242    1.0000 0.56373  0.59878  0.37164  Biso   1.000  H
  H1243    1.0000 0.30580  0.08580  0.31960  Biso   1.000  H
  H1244    1.0000 0.32590  0.06150  0.34500  Biso   1.000  H
  H1245    1.0000 0.34240  0.07170  0.30950  Biso   1.000  H
  H1246    1.0000 0.06362  0.12980  0.40079  Biso   1.000  H
  H1247    1.0000 0.06384  0.09844  0.37309  Biso   1.000  H
  H1248    1.0000 0.31911  0.08648  0.30252  Biso   1.000  H
  H1249    1.0000 0.30647  0.07110  0.34386  Biso   1.000  H
  H1250    1.0000 0.34702  0.05883  0.32622  Biso   1.000  H
  H1251    1.0000 0.06373  0.09878  0.37164  Biso   1.000  H
  H1252    1.0000 0.30580  0.58580  0.81960  Biso   1.000  H
  H1253    1.0000 0.32590  0.56150  0.84500  Biso   1.000  H
  H1254    1.0000 0.34240  0.57170  0.80950  Biso   1.000  H
  H1255    1.0000 0.06362  0.62980  0.90079  Biso   1.000  H
  H1256    1.0000 0.06384  0.59844  0.87309  Biso   1.000  H
  H1257    1.0000 0.31911  0.58648  0.80252  Biso   1.000  H
  H1258    1.0000 0.30647  0.57110  0.84386  Biso   1.000  H
  H1259    1.0000 0.34702  0.55883  0.82622  Biso   1.000  H
  H1260    1.0000 0.06373  0.59878  0.87164  Biso   1.000  H
  H1261    1.0000 0.19420  0.08580  0.18040  Biso   1.000  H
  H1262    1.0000 0.17410  0.06150  0.15500  Biso   1.000  H
  H1263    1.0000 0.15760  0.07170  0.19050  Biso   1.000  H
  H1264    1.0000 0.43638  0.12980  0.09921  Biso   1.000  H
  H1265    1.0000 0.43616  0.09844  0.12691  Biso   1.000  H
  H1266    1.0000 0.18089  0.08648  0.19748  Biso   1.000  H
  H1267    1.0000 0.19353  0.07110  0.15614  Biso   1.000  H
  H1268    1.0000 0.15298  0.05883  0.17378  Biso   1.000  H
  H1269    1.0000 0.43627  0.09878  0.12836  Biso   1.000  H
  H1270    1.0000 0.19420  0.58580  0.68040  Biso   1.000  H
  H1271    1.0000 0.17410  0.56150  0.65500  Biso   1.000  H
  H1272    1.0000 0.15760  0.57170  0.69050  Biso   1.000  H
  H1273    1.0000 0.43638  0.62980  0.59921  Biso   1.000  H
  H1274    1.0000 0.43616  0.59844  0.62691  Biso   1.000  H
  H1275    1.0000 0.18089  0.58648  0.69748  Biso   1.000  H
  H1276    1.0000 0.19353  0.57110  0.65614  Biso   1.000  H
  H1277    1.0000 0.15298  0.55883  0.67378  Biso   1.000  H
  H1278    1.0000 0.43627  0.59878  0.62836  Biso   1.000  H
  H1279    1.0000 0.69420  0.08580  0.68040  Biso   1.000  H
  H1280    1.0000 0.67410  0.06150  0.65500  Biso   1.000  H
  H1281    1.0000 0.65760  0.07170  0.69050  Biso   1.000  H
  H1282    1.0000 0.93638  0.12980  0.59921  Biso   1.000  H
  H1283    1.0000 0.93616  0.09844  0.62691  Biso   1.000  H
  H1284    1.0000 0.68089  0.08648  0.69748  Biso   1.000  H
  H1285    1.0000 0.69353  0.07110  0.65614  Biso   1.000  H
  H1286    1.0000 0.65298  0.05883  0.67378  Biso   1.000  H
  H1287    1.0000 0.93627  0.09878  0.62836  Biso   1.000  H
  H1288    1.0000 0.69420  0.58580  0.18040  Biso   1.000  H
  H1289    1.0000 0.67410  0.56150  0.15500  Biso   1.000  H
  H1290    1.0000 0.65760  0.57170  0.19050  Biso   1.000  H
  H1291    1.0000 0.93638  0.62980  0.09921  Biso   1.000  H
  H1292    1.0000 0.93616  0.59844  0.12691  Biso   1.000  H
  H1293    1.0000 0.68089  0.58648  0.19748  Biso   1.000  H
  H1294    1.0000 0.69353  0.57110  0.15614  Biso   1.000  H
  H1295    1.0000 0.65298  0.55883  0.17378  Biso   1.000  H
  H1296    1.0000 0.93627  0.59878  0.12836  Biso   1.000  H
  H1297    1.0000 0.80580  0.18040  0.08580  Biso   1.000  H
  H1298    1.0000 0.82590  0.15500  0.06150  Biso   1.000  H
  H1299    1.0000 0.84240  0.19050  0.07170  Biso   1.000  H
  H1300    1.0000 0.56362  0.09921  0.12980  Biso   1.000  H
  H1301    1.0000 0.56384  0.12691  0.09844  Biso   1.000  H
  H1302    1.0000 0.81911  0.19748  0.08648  Biso   1.000  H
  H1303    1.0000 0.80647  0.15614  0.07110  Biso   1.000  H
  H1304    1.0000 0.84702  0.17378  0.05883  Biso   1.000  H
  H1305    1.0000 0.56373  0.12836  0.09878  Biso   1.000  H
  H1306    1.0000 0.80580  0.68040  0.58580  Biso   1.000  H
  H1307    1.0000 0.82590  0.65500  0.56150  Biso   1.000  H
  H1308    1.0000 0.84240  0.69050  0.57170  Biso   1.000  H
  H1309    1.0000 0.56362  0.59921  0.62980  Biso   1.000  H
  H1310    1.0000 0.56384  0.62691  0.59844  Biso   1.000  H
  H1311    1.0000 0.81911  0.69748  0.58648  Biso   1.000  H
  H1312    1.0000 0.80647  0.65614  0.57110  Biso   1.000  H
  H1313    1.0000 0.84702  0.67378  0.55883  Biso   1.000  H
  H1314    1.0000 0.56373  0.62836  0.59878  Biso   1.000  H
  H1315    1.0000 0.30580  0.18040  0.58580  Biso   1.000  H
  H1316    1.0000 0.32590  0.15500  0.56150  Biso   1.000  H
  H1317    1.0000 0.34240  0.19050  0.57170  Biso   1.000  H
  H1318    1.0000 0.06362  0.09921  0.62980  Biso   1.000  H
  H1319    1.0000 0.06384  0.12691  0.59844  Biso   1.000  H
  H1320    1.0000 0.31911  0.19748  0.58648  Biso   1.000  H
  H1321    1.0000 0.30647  0.15614  0.57110  Biso   1.000  H
  H1322    1.0000 0.34702  0.17378  0.55883  Biso   1.000  H
  H1323    1.0000 0.06373  0.12836  0.59878  Biso   1.000  H
  H1324    1.0000 0.30580  0.68040  0.08580  Biso   1.000  H
  H1325    1.0000 0.32590  0.65500  0.06150  Biso   1.000  H
  H1326    1.0000 0.34240  0.69050  0.07170  Biso   1.000  H
  H1327    1.0000 0.06362  0.59921  0.12980  Biso   1.000  H
  H1328    1.0000 0.06384  0.62691  0.09844  Biso   1.000  H
  H1329    1.0000 0.31911  0.69748  0.08648  Biso   1.000  H
  H1330    1.0000 0.30647  0.65614  0.07110  Biso   1.000  H
  H1331    1.0000 0.34702  0.67378  0.05883  Biso   1.000  H
  H1332    1.0000 0.06373  0.62836  0.09878  Biso   1.000  H
  H1333    1.0000 0.19420  0.81960  0.08580  Biso   1.000  H
  H1334    1.0000 0.17410  0.84500  0.06150  Biso   1.000  H
  H1335    1.0000 0.15760  0.80950  0.07170  Biso   1.000  H
  H1336    1.0000 0.43638  0.90079  0.12980  Biso   1.000  H
  H1337    1.0000 0.43616  0.87309  0.09844  Biso   1.000  H
  H1338    1.0000 0.18089  0.80252  0.08648  Biso   1.000  H
  H1339    1.0000 0.19353  0.84386  0.07110  Biso   1.000  H
  H1340    1.0000 0.15298  0.82622  0.05883  Biso   1.000  H
  H1341    1.0000 0.43627  0.87164  0.09878  Biso   1.000  H
  H1342    1.0000 0.19420  0.31960  0.58580  Biso   1.000  H
  H1343    1.0000 0.17410  0.34500  0.56150  Biso   1.000  H
  H1344    1.0000 0.15760  0.30950  0.57170  Biso   1.000  H
  H1345    1.0000 0.43638  0.40079  0.62980  Biso   1.000  H
  H1346    1.0000 0.43616  0.37309  0.59844  Biso   1.000  H
  H1347    1.0000 0.18089  0.30252  0.58648  Biso   1.000  H
  H1348    1.0000 0.19353  0.34386  0.57110  Biso   1.000  H
  H1349    1.0000 0.15298  0.32622  0.55883  Biso   1.000  H
  H1350    1.0000 0.43627  0.37164  0.59878  Biso   1.000  H
  H1351    1.0000 0.69420  0.81960  0.58580  Biso   1.000  H
  H1352    1.0000 0.67410  0.84500  0.56150  Biso   1.000  H
  H1353    1.0000 0.65760  0.80950  0.57170  Biso   1.000  H
  H1354    1.0000 0.93638  0.90079  0.62980  Biso   1.000  H
  H1355    1.0000 0.93616  0.87309  0.59844  Biso   1.000  H
  H1356    1.0000 0.68089  0.80252  0.58648  Biso   1.000  H
  H1357    1.0000 0.69353  0.84386  0.57110  Biso   1.000  H
  H1358    1.0000 0.65298  0.82622  0.55883  Biso   1.000  H
  H1359    1.0000 0.93627  0.87164  0.59878  Biso   1.000  H
  H1360    1.0000 0.69420  0.31960  0.08580  Biso   1.000  H
  H1361    1.0000 0.67410  0.34500  0.06150  Biso   1.000  H
  H1362    1.0000 0.65760  0.30950  0.07170  Biso   1.000  H
  H1363    1.0000 0.93638  0.40079  0.12980  Biso   1.000  H
  H1364    1.0000 0.93616  0.37309  0.09844  Biso   1.000  H
  H1365    1.0000 0.68089  0.30252  0.08648  Biso   1.000  H
  H1366    1.0000 0.69353  0.34386  0.07110  Biso   1.000  H
  H1367    1.0000 0.65298  0.32622  0.05883  Biso   1.000  H
  H1368    1.0000 0.93627  0.37164  0.09878  Biso   1.000  H
  H1369    1.0000 0.80580  0.81960  0.91420  Biso   1.000  H
  H1370    1.0000 0.82590  0.84500  0.93850  Biso   1.000  H
  H1371    1.0000 0.84240  0.80950  0.92830  Biso   1.000  H
  H1372    1.0000 0.56362  0.90079  0.87020  Biso   1.000  H
  H1373    1.0000 0.56384  0.87309  0.90156  Biso   1.000  H
  H1374    1.0000 0.81911  0.80252  0.91352  Biso   1.000  H
  H1375    1.0000 0.80647  0.84386  0.92890  Biso   1.000  H
  H1376    1.0000 0.84702  0.82622  0.94117  Biso   1.000  H
  H1377    1.0000 0.56373  0.87164  0.90122  Biso   1.000  H
  H1378    1.0000 0.80580  0.31960  0.41420  Biso   1.000  H
  H1379    1.0000 0.82590  0.34500  0.43850  Biso   1.000  H
  H1380    1.0000 0.84240  0.30950  0.42830  Biso   1.000  H
  H1381    1.0000 0.56362  0.40079  0.37020  Biso   1.000  H
  H1382    1.0000 0.56384  0.37309  0.40156  Biso   1.000  H
  H1383    1.0000 0.81911  0.30252  0.41352  Biso   1.000  H
  H1384    1.0000 0.80647  0.34386  0.42890  Biso   1.000  H
  H1385    1.0000 0.84702  0.32622  0.44117  Biso   1.000  H
  H1386    1.0000 0.56373  0.37164  0.40122  Biso   1.000  H
  H1387    1.0000 0.30580  0.81960  0.41420  Biso   1.000  H
  H1388    1.0000 0.32590  0.84500  0.43850  Biso   1.000  H
  H1389    1.0000 0.34240  0.80950  0.42830  Biso   1.000  H
  H1390    1.0000 0.06362  0.90079  0.37020  Biso   1.000  H
  H1391    1.0000 0.06384  0.87309  0.40156  Biso   1.000  H
  H1392    1.0000 0.31911  0.80252  0.41352  Biso   1.000  H
  H1393    1.0000 0.30647  0.84386  0.42890  Biso   1.000  H
  H1394    1.0000 0.34702  0.82622  0.44117  Biso   1.000  H
  H1395    1.0000 0.06373  0.87164  0.40122  Biso   1.000  H
  H1396    1.0000 0.30580  0.31960  0.91420  Biso   1.000  H
  H1397    1.0000 0.32590  0.34500  0.93850  Biso   1.000  H
  H1398    1.0000 0.34240  0.30950  0.92830  Biso   1.000  H
  H1399    1.0000 0.06362  0.40079  0.87020  Biso   1.000  H
  H1400    1.0000 0.06384  0.37309  0.90156  Biso   1.000  H
  H1401    1.0000 0.31911  0.30252  0.91352  Biso   1.000  H
  H1402    1.0000 0.30647  0.34386  0.92890  Biso   1.000  H
  H1403    1.0000 0.34702  0.32622  0.94117  Biso   1.000  H
  H1404    1.0000 0.06373  0.37164  0.90122  Biso   1.000  H
  H1405    1.0000 0.19420  0.18040  0.91420  Biso   1.000  H
  H1406    1.0000 0.17410  0.15500  0.93850  Biso   1.000  H
  H1407    1.0000 0.15760  0.19050  0.92830  Biso   1.000  H
  H1408    1.0000 0.43638  0.09921  0.87020  Biso   1.000  H
  H1409    1.0000 0.43616  0.12691  0.90156  Biso   1.000  H
  H1410    1.0000 0.18089  0.19748  0.91352  Biso   1.000  H
  H1411    1.0000 0.19353  0.15614  0.92890  Biso   1.000  H
  H1412    1.0000 0.15298  0.17378  0.94117  Biso   1.000  H
  H1413    1.0000 0.43627  0.12836  0.90122  Biso   1.000  H
  H1414    1.0000 0.19420  0.68040  0.41420  Biso   1.000  H
  H1415    1.0000 0.17410  0.65500  0.43850  Biso   1.000  H
  H1416    1.0000 0.15760  0.69050  0.42830  Biso   1.000  H
  H1417    1.0000 0.43638  0.59921  0.37020  Biso   1.000  H
  H1418    1.0000 0.43616  0.62691  0.40156  Biso   1.000  H
  H1419    1.0000 0.18089  0.69748  0.41352  Biso   1.000  H
  H1420    1.0000 0.19353  0.65614  0.42890  Biso   1.000  H
  H1421    1.0000 0.15298  0.67378  0.44117  Biso   1.000  H
  H1422    1.0000 0.43627  0.62836  0.40122  Biso   1.000  H
  H1423    1.0000 0.69420  0.18040  0.41420  Biso   1.000  H
  H1424    1.0000 0.67410  0.15500  0.43850  Biso   1.000  H
  H1425    1.0000 0.65760  0.19050  0.42830  Biso   1.000  H
  H1426    1.0000 0.93638  0.09921  0.37020  Biso   1.000  H
  H1427    1.0000 0.93616  0.12691  0.40156  Biso   1.000  H
  H1428    1.0000 0.68089  0.19748  0.41352  Biso   1.000  H
  H1429    1.0000 0.69353  0.15614  0.42890  Biso   1.000  H
  H1430    1.0000 0.65298  0.17378  0.44117  Biso   1.000  H
  H1431    1.0000 0.93627  0.12836  0.40122  Biso   1.000  H
  H1432    1.0000 0.69420  0.68040  0.91420  Biso   1.000  H
  H1433    1.0000 0.67410  0.65500  0.93850  Biso   1.000  H
  H1434    1.0000 0.65760  0.69050  0.92830  Biso   1.000  H
  H1435    1.0000 0.93638  0.59921  0.87020  Biso   1.000  H
  H1436    1.0000 0.93616  0.62691  0.90156  Biso   1.000  H
  H1437    1.0000 0.68089  0.69748  0.91352  Biso   1.000  H
  H1438    1.0000 0.69353  0.65614  0.92890  Biso   1.000  H
  H1439    1.0000 0.65298  0.67378  0.94117  Biso   1.000  H
  H1440    1.0000 0.93627  0.62836  0.90122  Biso   1.000  H
  H1441    1.0000 0.18040  0.91420  0.19420  Biso   1.000  H
  H1442    1.0000 0.15500  0.93850  0.17410  Biso   1.000  H
  H1443    1.0000 0.19050  0.92830  0.15760  Biso   1.000  H
  H1444    1.0000 0.09921  0.87020  0.43638  Biso   1.000  H
  H1445    1.0000 0.12691  0.90156  0.43616  Biso   1.000  H
  H1446    1.0000 0.19748  0.91352  0.18089  Biso   1.000  H
  H1447    1.0000 0.15614  0.92890  0.19353  Biso   1.000  H
  H1448    1.0000 0.17378  0.94117  0.15298  Biso   1.000  H
  H1449    1.0000 0.12836  0.90122  0.43627  Biso   1.000  H
  H1450    1.0000 0.18040  0.41420  0.69420  Biso   1.000  H
  H1451    1.0000 0.15500  0.43850  0.67410  Biso   1.000  H
  H1452    1.0000 0.19050  0.42830  0.65760  Biso   1.000  H
  H1453    1.0000 0.09921  0.37020  0.93638  Biso   1.000  H
  H1454    1.0000 0.12691  0.40156  0.93616  Biso   1.000  H
  H1455    1.0000 0.19748  0.41352  0.68089  Biso   1.000  H
  H1456    1.0000 0.15614  0.42890  0.69353  Biso   1.000  H
  H1457    1.0000 0.17378  0.44117  0.65298  Biso   1.000  H
  H1458    1.0000 0.12836  0.40122  0.93627  Biso   1.000  H
  H1459    1.0000 0.68040  0.91420  0.69420  Biso   1.000  H
  H1460    1.0000 0.65500  0.93850  0.67410  Biso   1.000  H
  H1461    1.0000 0.69050  0.92830  0.65760  Biso   1.000  H
  H1462    1.0000 0.59921  0.87020  0.93638  Biso   1.000  H
  H1463    1.0000 0.62691  0.90156  0.93616  Biso   1.000  H
  H1464    1.0000 0.69748  0.91352  0.68089  Biso   1.000  H
  H1465    1.0000 0.65614  0.92890  0.69353  Biso   1.000  H
  H1466    1.0000 0.67378  0.94117  0.65298  Biso   1.000  H
  H1467    1.0000 0.62836  0.90122  0.93627  Biso   1.000  H
  H1468    1.0000 0.68040  0.41420  0.19420  Biso   1.000  H
  H1469    1.0000 0.65500  0.43850  0.17410  Biso   1.000  H
  H1470    1.0000 0.69050  0.42830  0.15760  Biso   1.000  H
  H1471    1.0000 0.59921  0.37020  0.43638  Biso   1.000  H
  H1472    1.0000 0.62691  0.40156  0.43616  Biso   1.000  H
  H1473    1.0000 0.69748  0.41352  0.18089  Biso   1.000  H
  H1474    1.0000 0.65614  0.42890  0.19353  Biso   1.000  H
  H1475    1.0000 0.67378  0.44117  0.15298  Biso   1.000  H
  H1476    1.0000 0.62836  0.40122  0.43627  Biso   1.000  H
  H1477    1.0000 0.81960  0.91420  0.80580  Biso   1.000  H
  H1478    1.0000 0.84500  0.93850  0.82590  Biso   1.000  H
  H1479    1.0000 0.80950  0.92830  0.84240  Biso   1.000  H
  H1480    1.0000 0.90079  0.87020  0.56362  Biso   1.000  H
  H1481    1.0000 0.87309  0.90156  0.56384  Biso   1.000  H
  H1482    1.0000 0.80252  0.91352  0.81911  Biso   1.000  H
  H1483    1.0000 0.84386  0.92890  0.80647  Biso   1.000  H
  H1484    1.0000 0.82622  0.94117  0.84702  Biso   1.000  H
  H1485    1.0000 0.87164  0.90122  0.56373  Biso   1.000  H
  H1486    1.0000 0.81960  0.41420  0.30580  Biso   1.000  H
  H1487    1.0000 0.84500  0.43850  0.32590  Biso   1.000  H
  H1488    1.0000 0.80950  0.42830  0.34240  Biso   1.000  H
  H1489    1.0000 0.90079  0.37020  0.06362  Biso   1.000  H
  H1490    1.0000 0.87309  0.40156  0.06384  Biso   1.000  H
  H1491    1.0000 0.80252  0.41352  0.31911  Biso   1.000  H
  H1492    1.0000 0.84386  0.42890  0.30647  Biso   1.000  H
  H1493    1.0000 0.82622  0.44117  0.34702  Biso   1.000  H
  H1494    1.0000 0.87164  0.40122  0.06373  Biso   1.000  H
  H1495    1.0000 0.31960  0.91420  0.30580  Biso   1.000  H
  H1496    1.0000 0.34500  0.93850  0.32590  Biso   1.000  H
  H1497    1.0000 0.30950  0.92830  0.34240  Biso   1.000  H
  H1498    1.0000 0.40079  0.87020  0.06362  Biso   1.000  H
  H1499    1.0000 0.37309  0.90156  0.06384  Biso   1.000  H
  H1500    1.0000 0.30252  0.91352  0.31911  Biso   1.000  H
  H1501    1.0000 0.34386  0.92890  0.30647  Biso   1.000  H
  H1502    1.0000 0.32622  0.94117  0.34702  Biso   1.000  H
  H1503    1.0000 0.37164  0.90122  0.06373  Biso   1.000  H
  H1504    1.0000 0.31960  0.41420  0.80580  Biso   1.000  H
  H1505    1.0000 0.34500  0.43850  0.82590  Biso   1.000  H
  H1506    1.0000 0.30950  0.42830  0.84240  Biso   1.000  H
  H1507    1.0000 0.40079  0.37020  0.56362  Biso   1.000  H
  H1508    1.0000 0.37309  0.40156  0.56384  Biso   1.000  H
  H1509    1.0000 0.30252  0.41352  0.81911  Biso   1.000  H
  H1510    1.0000 0.34386  0.42890  0.80647  Biso   1.000  H
  H1511    1.0000 0.32622  0.44117  0.84702  Biso   1.000  H
  H1512    1.0000 0.37164  0.40122  0.56373  Biso   1.000  H
  H1513    1.0000 0.81960  0.08580  0.19420  Biso   1.000  H
  H1514    1.0000 0.84500  0.06150  0.17410  Biso   1.000  H
  H1515    1.0000 0.80950  0.07170  0.15760  Biso   1.000  H
  H1516    1.0000 0.90079  0.12980  0.43638  Biso   1.000  H
  H1517    1.0000 0.87309  0.09844  0.43616  Biso   1.000  H
  H1518    1.0000 0.80252  0.08648  0.18089  Biso   1.000  H
  H1519    1.0000 0.84386  0.07110  0.19353  Biso   1.000  H
  H1520    1.0000 0.82622  0.05883  0.15298  Biso   1.000  H
  H1521    1.0000 0.87164  0.09878  0.43627  Biso   1.000  H
  H1522    1.0000 0.81960  0.58580  0.69420  Biso   1.000  H
  H1523    1.0000 0.84500  0.56150  0.67410  Biso   1.000  H
  H1524    1.0000 0.80950  0.57170  0.65760  Biso   1.000  H
  H1525    1.0000 0.90079  0.62980  0.93638  Biso   1.000  H
  H1526    1.0000 0.87309  0.59844  0.93616  Biso   1.000  H
  H1527    1.0000 0.80252  0.58648  0.68089  Biso   1.000  H
  H1528    1.0000 0.84386  0.57110  0.69353  Biso   1.000  H
  H1529    1.0000 0.82622  0.55883  0.65298  Biso   1.000  H
  H1530    1.0000 0.87164  0.59878  0.93627  Biso   1.000  H
  H1531    1.0000 0.31960  0.08580  0.69420  Biso   1.000  H
  H1532    1.0000 0.34500  0.06150  0.67410  Biso   1.000  H
  H1533    1.0000 0.30950  0.07170  0.65760  Biso   1.000  H
  H1534    1.0000 0.40079  0.12980  0.93638  Biso   1.000  H
  H1535    1.0000 0.37309  0.09844  0.93616  Biso   1.000  H
  H1536    1.0000 0.30252  0.08648  0.68089  Biso   1.000  H
  H1537    1.0000 0.34386  0.07110  0.69353  Biso   1.000  H
  H1538    1.0000 0.32622  0.05883  0.65298  Biso   1.000  H
  H1539    1.0000 0.37164  0.09878  0.93627  Biso   1.000  H
  H1540    1.0000 0.31960  0.58580  0.19420  Biso   1.000  H
  H1541    1.0000 0.34500  0.56150  0.17410  Biso   1.000  H
  H1542    1.0000 0.30950  0.57170  0.15760  Biso   1.000  H
  H1543    1.0000 0.40079  0.62980  0.43638  Biso   1.000  H
  H1544    1.0000 0.37309  0.59844  0.43616  Biso   1.000  H
  H1545    1.0000 0.30252  0.58648  0.18089  Biso   1.000  H
  H1546    1.0000 0.34386  0.57110  0.19353  Biso   1.000  H
  H1547    1.0000 0.32622  0.55883  0.15298  Biso   1.000  H
  H1548    1.0000 0.37164  0.59878  0.43627  Biso   1.000  H
  H1549    1.0000 0.18040  0.08580  0.80580  Biso   1.000  H
  H1550    1.0000 0.15500  0.06150  0.82590  Biso   1.000  H
  H1551    1.0000 0.19050  0.07170  0.84240  Biso   1.000  H
  H1552    1.0000 0.09921  0.12980  0.56362  Biso   1.000  H
  H1553    1.0000 0.12691  0.09844  0.56384  Biso   1.000  H
  H1554    1.0000 0.19748  0.08648  0.81911  Biso   1.000  H
  H1555    1.0000 0.15614  0.07110  0.80647  Biso   1.000  H
  H1556    1.0000 0.17378  0.05883  0.84702  Biso   1.000  H
  H1557    1.0000 0.12836  0.09878  0.56373  Biso   1.000  H
  H1558    1.0000 0.18040  0.58580  0.30580  Biso   1.000  H
  H1559    1.0000 0.15500  0.56150  0.32590  Biso   1.000  H
  H1560    1.0000 0.19050  0.57170  0.34240  Biso   1.000  H
  H1561    1.0000 0.09921  0.62980  0.06362  Biso   1.000  H
  H1562    1.0000 0.12691  0.59844  0.06384  Biso   1.000  H
  H1563    1.0000 0.19748  0.58648  0.31911  Biso   1.000  H
  H1564    1.0000 0.15614  0.57110  0.30647  Biso   1.000  H
  H1565    1.0000 0.17378  0.55883  0.34702  Biso   1.000  H
  H1566    1.0000 0.12836  0.59878  0.06373  Biso   1.000  H
  H1567    1.0000 0.68040  0.08580  0.30580  Biso   1.000  H
  H1568    1.0000 0.65500  0.06150  0.32590  Biso   1.000  H
  H1569    1.0000 0.69050  0.07170  0.34240  Biso   1.000  H
  H1570    1.0000 0.59921  0.12980  0.06362  Biso   1.000  H
  H1571    1.0000 0.62691  0.09844  0.06384  Biso   1.000  H
  H1572    1.0000 0.69748  0.08648  0.31911  Biso   1.000  H
  H1573    1.0000 0.65614  0.07110  0.30647  Biso   1.000  H
  H1574    1.0000 0.67378  0.05883  0.34702  Biso   1.000  H
  H1575    1.0000 0.62836  0.09878  0.06373  Biso   1.000  H
  H1576    1.0000 0.68040  0.58580  0.80580  Biso   1.000  H
  H1577    1.0000 0.65500  0.56150  0.82590  Biso   1.000  H
  H1578    1.0000 0.69050  0.57170  0.84240  Biso   1.000  H
  H1579    1.0000 0.59921  0.62980  0.56362  Biso   1.000  H
  H1580    1.0000 0.62691  0.59844  0.56384  Biso   1.000  H
  H1581    1.0000 0.69748  0.58648  0.81911  Biso   1.000  H
  H1582    1.0000 0.65614  0.57110  0.80647  Biso   1.000  H
  H1583    1.0000 0.67378  0.55883  0.84702  Biso   1.000  H
  H1584    1.0000 0.62836  0.59878  0.56373  Biso   1.000  H
  H1585    1.0000 0.91420  0.80580  0.81960  Biso   1.000  H
  H1586    1.0000 0.93850  0.82590  0.84500  Biso   1.000  H
  H1587    1.0000 0.92830  0.84240  0.80950  Biso   1.000  H
  H1588    1.0000 0.87020  0.56362  0.90079  Biso   1.000  H
  H1589    1.0000 0.90156  0.56384  0.87309  Biso   1.000  H
  H1590    1.0000 0.91352  0.81911  0.80252  Biso   1.000  H
  H1591    1.0000 0.92890  0.80647  0.84386  Biso   1.000  H
  H1592    1.0000 0.94117  0.84702  0.82622  Biso   1.000  H
  H1593    1.0000 0.90122  0.56373  0.87164  Biso   1.000  H
  H1594    1.0000 0.91420  0.30580  0.31960  Biso   1.000  H
  H1595    1.0000 0.93850  0.32590  0.34500  Biso   1.000  H
  H1596    1.0000 0.92830  0.34240  0.30950  Biso   1.000  H
  H1597    1.0000 0.87020  0.06362  0.40079  Biso   1.000  H
  H1598    1.0000 0.90156  0.06384  0.37309  Biso   1.000  H
  H1599    1.0000 0.91352  0.31911  0.30252  Biso   1.000  H
  H1600    1.0000 0.92890  0.30647  0.34386  Biso   1.000  H
  H1601    1.0000 0.94117  0.34702  0.32622  Biso   1.000  H
  H1602    1.0000 0.90122  0.06373  0.37164  Biso   1.000  H
  H1603    1.0000 0.41420  0.80580  0.31960  Biso   1.000  H
  H1604    1.0000 0.43850  0.82590  0.34500  Biso   1.000  H
  H1605    1.0000 0.42830  0.84240  0.30950  Biso   1.000  H
  H1606    1.0000 0.37020  0.56362  0.40079  Biso   1.000  H
  H1607    1.0000 0.40156  0.56384  0.37309  Biso   1.000  H
  H1608    1.0000 0.41352  0.81911  0.30252  Biso   1.000  H
  H1609    1.0000 0.42890  0.80647  0.34386  Biso   1.000  H
  H1610    1.0000 0.44117  0.84702  0.32622  Biso   1.000  H
  H1611    1.0000 0.40122  0.56373  0.37164  Biso   1.000  H
  H1612    1.0000 0.41420  0.30580  0.81960  Biso   1.000  H
  H1613    1.0000 0.43850  0.32590  0.84500  Biso   1.000  H
  H1614    1.0000 0.42830  0.34240  0.80950  Biso   1.000  H
  H1615    1.0000 0.37020  0.06362  0.90079  Biso   1.000  H
  H1616    1.0000 0.40156  0.06384  0.87309  Biso   1.000  H
  H1617    1.0000 0.41352  0.31911  0.80252  Biso   1.000  H
  H1618    1.0000 0.42890  0.30647  0.84386  Biso   1.000  H
  H1619    1.0000 0.44117  0.34702  0.82622  Biso   1.000  H
  H1620    1.0000 0.40122  0.06373  0.87164  Biso   1.000  H
  H1621    1.0000 0.91420  0.19420  0.18040  Biso   1.000  H
  H1622    1.0000 0.93850  0.17410  0.15500  Biso   1.000  H
  H1623    1.0000 0.92830  0.15760  0.19050  Biso   1.000  H
  H1624    1.0000 0.87020  0.43638  0.09921  Biso   1.000  H
  H1625    1.0000 0.90156  0.43616  0.12691  Biso   1.000  H
  H1626    1.0000 0.91352  0.18089  0.19748  Biso   1.000  H
  H1627    1.0000 0.92890  0.19353  0.15614  Biso   1.000  H
  H1628    1.0000 0.94117  0.15298  0.17378  Biso   1.000  H
  H1629    1.0000 0.90122  0.43627  0.12836  Biso   1.000  H
  H1630    1.0000 0.91420  0.69420  0.68040  Biso   1.000  H
  H1631    1.0000 0.93850  0.67410  0.65500  Biso   1.000  H
  H1632    1.0000 0.92830  0.65760  0.69050  Biso   1.000  H
  H1633    1.0000 0.87020  0.93638  0.59921  Biso   1.000  H
  H1634    1.0000 0.90156  0.93616  0.62691  Biso   1.000  H
  H1635    1.0000 0.91352  0.68089  0.69748  Biso   1.000  H
  H1636    1.0000 0.92890  0.69353  0.65614  Biso   1.000  H
  H1637    1.0000 0.94117  0.65298  0.67378  Biso   1.000  H
  H1638    1.0000 0.90122  0.93627  0.62836  Biso   1.000  H
  H1639    1.0000 0.41420  0.19420  0.68040  Biso   1.000  H
  H1640    1.0000 0.43850  0.17410  0.65500  Biso   1.000  H
  H1641    1.0000 0.42830  0.15760  0.69050  Biso   1.000  H
  H1642    1.0000 0.37020  0.43638  0.59921  Biso   1.000  H
  H1643    1.0000 0.40156  0.43616  0.62691  Biso   1.000  H
  H1644    1.0000 0.41352  0.18089  0.69748  Biso   1.000  H
  H1645    1.0000 0.42890  0.19353  0.65614  Biso   1.000  H
  H1646    1.0000 0.44117  0.15298  0.67378  Biso   1.000  H
  H1647    1.0000 0.40122  0.43627  0.62836  Biso   1.000  H
  H1648    1.0000 0.41420  0.69420  0.18040  Biso   1.000  H
  H1649    1.0000 0.43850  0.67410  0.15500  Biso   1.000  H
  H1650    1.0000 0.42830  0.65760  0.19050  Biso   1.000  H
  H1651    1.0000 0.37020  0.93638  0.09921  Biso   1.000  H
  H1652    1.0000 0.40156  0.93616  0.12691  Biso   1.000  H
  H1653    1.0000 0.41352  0.68089  0.19748  Biso   1.000  H
  H1654    1.0000 0.42890  0.69353  0.15614  Biso   1.000  H
  H1655    1.0000 0.44117  0.65298  0.17378  Biso   1.000  H
  H1656    1.0000 0.40122  0.93627  0.12836  Biso   1.000  H
  H1657    1.0000 0.08580  0.80580  0.18040  Biso   1.000  H
  H1658    1.0000 0.06150  0.82590  0.15500  Biso   1.000  H
  H1659    1.0000 0.07170  0.84240  0.19050  Biso   1.000  H
  H1660    1.0000 0.12980  0.56362  0.09921  Biso   1.000  H
  H1661    1.0000 0.09844  0.56384  0.12691  Biso   1.000  H
  H1662    1.0000 0.08648  0.81911  0.19748  Biso   1.000  H
  H1663    1.0000 0.07110  0.80647  0.15614  Biso   1.000  H
  H1664    1.0000 0.05883  0.84702  0.17378  Biso   1.000  H
  H1665    1.0000 0.09878  0.56373  0.12836  Biso   1.000  H
  H1666    1.0000 0.08580  0.30580  0.68040  Biso   1.000  H
  H1667    1.0000 0.06150  0.32590  0.65500  Biso   1.000  H
  H1668    1.0000 0.07170  0.34240  0.69050  Biso   1.000  H
  H1669    1.0000 0.12980  0.06362  0.59921  Biso   1.000  H
  H1670    1.0000 0.09844  0.06384  0.62691  Biso   1.000  H
  H1671    1.0000 0.08648  0.31911  0.69748  Biso   1.000  H
  H1672    1.0000 0.07110  0.30647  0.65614  Biso   1.000  H
  H1673    1.0000 0.05883  0.34702  0.67378  Biso   1.000  H
  H1674    1.0000 0.09878  0.06373  0.62836  Biso   1.000  H
  H1675    1.0000 0.58580  0.80580  0.68040  Biso   1.000  H
  H1676    1.0000 0.56150  0.82590  0.65500  Biso   1.000  H
  H1677    1.0000 0.57170  0.84240  0.69050  Biso   1.000  H
  H1678    1.0000 0.62980  0.56362  0.59921  Biso   1.000  H
  H1679    1.0000 0.59844  0.56384  0.62691  Biso   1.000  H
  H1680    1.0000 0.58648  0.81911  0.69748  Biso   1.000  H
  H1681    1.0000 0.57110  0.80647  0.65614  Biso   1.000  H
  H1682    1.0000 0.55883  0.84702  0.67378  Biso   1.000  H
  H1683    1.0000 0.59878  0.56373  0.62836  Biso   1.000  H
  H1684    1.0000 0.58580  0.30580  0.18040  Biso   1.000  H
  H1685    1.0000 0.56150  0.32590  0.15500  Biso   1.000  H
  H1686    1.0000 0.57170  0.34240  0.19050  Biso   1.000  H
  H1687    1.0000 0.62980  0.06362  0.09921  Biso   1.000  H
  H1688    1.0000 0.59844  0.06384  0.12691  Biso   1.000  H
  H1689    1.0000 0.58648  0.31911  0.19748  Biso   1.000  H
  H1690    1.0000 0.57110  0.30647  0.15614  Biso   1.000  H
  H1691    1.0000 0.55883  0.34702  0.17378  Biso   1.000  H
  H1692    1.0000 0.59878  0.06373  0.12836  Biso   1.000  H
  H1693    1.0000 0.08580  0.19420  0.81960  Biso   1.000  H
  H1694    1.0000 0.06150  0.17410  0.84500  Biso   1.000  H
  H1695    1.0000 0.07170  0.15760  0.80950  Biso   1.000  H
  H1696    1.0000 0.12980  0.43638  0.90079  Biso   1.000  H
  H1697    1.0000 0.09844  0.43616  0.87309  Biso   1.000  H
  H1698    1.0000 0.08648  0.18089  0.80252  Biso   1.000  H
  H1699    1.0000 0.07110  0.19353  0.84386  Biso   1.000  H
  H1700    1.0000 0.05883  0.15298  0.82622  Biso   1.000  H
  H1701    1.0000 0.09878  0.43627  0.87164  Biso   1.000  H
  H1702    1.0000 0.08580  0.69420  0.31960  Biso   1.000  H
  H1703    1.0000 0.06150  0.67410  0.34500  Biso   1.000  H
  H1704    1.0000 0.07170  0.65760  0.30950  Biso   1.000  H
  H1705    1.0000 0.12980  0.93638  0.40079  Biso   1.000  H
  H1706    1.0000 0.09844  0.93616  0.37309  Biso   1.000  H
  H1707    1.0000 0.08648  0.68089  0.30252  Biso   1.000  H
  H1708    1.0000 0.07110  0.69353  0.34386  Biso   1.000  H
  H1709    1.0000 0.05883  0.65298  0.32622  Biso   1.000  H
  H1710    1.0000 0.09878  0.93627  0.37164  Biso   1.000  H
  H1711    1.0000 0.58580  0.19420  0.31960  Biso   1.000  H
  H1712    1.0000 0.56150  0.17410  0.34500  Biso   1.000  H
  H1713    1.0000 0.57170  0.15760  0.30950  Biso   1.000  H
  H1714    1.0000 0.62980  0.43638  0.40079  Biso   1.000  H
  H1715    1.0000 0.59844  0.43616  0.37309  Biso   1.000  H
  H1716    1.0000 0.58648  0.18089  0.30252  Biso   1.000  H
  H1717    1.0000 0.57110  0.19353  0.34386  Biso   1.000  H
  H1718    1.0000 0.55883  0.15298  0.32622  Biso   1.000  H
  H1719    1.0000 0.59878  0.43627  0.37164  Biso   1.000  H
  H1720    1.0000 0.58580  0.69420  0.81960  Biso   1.000  H
  H1721    1.0000 0.56150  0.67410  0.84500  Biso   1.000  H
  H1722    1.0000 0.57170  0.65760  0.80950  Biso   1.000  H
  H1723    1.0000 0.62980  0.93638  0.90079  Biso   1.000  H
  H1724    1.0000 0.59844  0.93616  0.87309  Biso   1.000  H
  H1725    1.0000 0.58648  0.68089  0.80252  Biso   1.000  H
  H1726    1.0000 0.57110  0.69353  0.84386  Biso   1.000  H
  H1727    1.0000 0.55883  0.65298  0.82622  Biso   1.000  H
  H1728    1.0000 0.59878  0.93627  0.87164  Biso   1.000  H
  Co1      1.0000 0.00000  0.19781  0.00000  Biso   1.000  Co
  Co2      1.0000 0.00000  0.27284  0.00000  Biso   1.000  Co
  Co3      1.0000 0.00000  0.69781  0.50000  Biso   1.000  Co
  Co4      1.0000 0.00000  0.77284  0.50000  Biso   1.000  Co
  Co5      1.0000 0.50000  0.19781  0.50000  Biso   1.000  Co
  Co6      1.0000 0.50000  0.27284  0.50000  Biso   1.000  Co
  Co7      1.0000 0.50000  0.69781  0.00000  Biso   1.000  Co
  Co8      1.0000 0.50000  0.77284  0.00000  Biso   1.000  Co
  Co9      1.0000 0.00000  0.80219  0.00000  Biso   1.000  Co
  Co10     1.0000 0.00000  0.72716  0.00000  Biso   1.000  Co
  Co11     1.0000 0.00000  0.30219  0.50000  Biso   1.000  Co
  Co12     1.0000 0.00000  0.22716  0.50000  Biso   1.000  Co
  Co13     1.0000 0.50000  0.80219  0.50000  Biso   1.000  Co
  Co14     1.0000 0.50000  0.72716  0.50000  Biso   1.000  Co
  Co15     1.0000 0.50000  0.30219  0.00000  Biso   1.000  Co
  Co16     1.0000 0.50000  0.22716  0.00000  Biso   1.000  Co
  Co17     1.0000 0.00000  0.00000  0.19781  Biso   1.000  Co
  Co18     1.0000 0.00000  0.00000  0.27284  Biso   1.000  Co
  Co19     1.0000 0.00000  0.50000  0.69781  Biso   1.000  Co
  Co20     1.0000 0.00000  0.50000  0.77284  Biso   1.000  Co
  Co21     1.0000 0.50000  0.00000  0.69781  Biso   1.000  Co
  Co22     1.0000 0.50000  0.00000  0.77284  Biso   1.000  Co
  Co23     1.0000 0.50000  0.50000  0.19781  Biso   1.000  Co
  Co24     1.0000 0.50000  0.50000  0.27284  Biso   1.000  Co
  Co25     1.0000 0.00000  0.00000  0.80219  Biso   1.000  Co
  Co26     1.0000 0.00000  0.00000  0.72716  Biso   1.000  Co
  Co27     1.0000 0.00000  0.50000  0.30219  Biso   1.000  Co
  Co28     1.0000 0.00000  0.50000  0.22716  Biso   1.000  Co
  Co29     1.0000 0.50000  0.00000  0.30219  Biso   1.000  Co
  Co30     1.0000 0.50000  0.00000  0.22716  Biso   1.000  Co
  Co31     1.0000 0.50000  0.50000  0.80219  Biso   1.000  Co
  Co32     1.0000 0.50000  0.50000  0.72716  Biso   1.000  Co
  Co33     1.0000 0.19781  0.00000  0.00000  Biso   1.000  Co
  Co34     1.0000 0.27284  0.00000  0.00000  Biso   1.000  Co
  Co35     1.0000 0.19781  0.50000  0.50000  Biso   1.000  Co
  Co36     1.0000 0.27284  0.50000  0.50000  Biso   1.000  Co
  Co37     1.0000 0.69781  0.00000  0.50000  Biso   1.000  Co
  Co38     1.0000 0.77284  0.00000  0.50000  Biso   1.000  Co
  Co39     1.0000 0.69781  0.50000  0.00000  Biso   1.000  Co
  Co40     1.0000 0.77284  0.50000  0.00000  Biso   1.000  Co
  Co41     1.0000 0.80219  0.00000  0.00000  Biso   1.000  Co
  Co42     1.0000 0.72716  0.00000  0.00000  Biso   1.000  Co
  Co43     1.0000 0.80219  0.50000  0.50000  Biso   1.000  Co
  Co44     1.0000 0.72716  0.50000  0.50000  Biso   1.000  Co
  Co45     1.0000 0.30219  0.00000  0.50000  Biso   1.000  Co
  Co46     1.0000 0.22716  0.00000  0.50000  Biso   1.000  Co
  Co47     1.0000 0.30219  0.50000  0.00000  Biso   1.000  Co
  Co48     1.0000 0.22716  0.50000  0.00000  Biso   1.000  Co
  Co49     1.0000 0.87406  0.37406  0.12594  Biso   1.000  Co
  Co50     1.0000 0.82049  0.32049  0.17951  Biso   1.000  Co
  Co51     1.0000 0.12594  0.62594  0.12594  Biso   1.000  Co
  Co52     1.0000 0.17951  0.67951  0.17951  Biso   1.000  Co
  Co53     1.0000 0.12594  0.37406  0.87406  Biso   1.000  Co
  Co54     1.0000 0.17951  0.32049  0.82049  Biso   1.000  Co
  Co55     1.0000 0.87406  0.62594  0.87406  Biso   1.000  Co
  Co56     1.0000 0.82049  0.67951  0.82049  Biso   1.000  Co
  Co57     1.0000 0.12594  0.87406  0.37406  Biso   1.000  Co
  Co58     1.0000 0.17951  0.82049  0.32049  Biso   1.000  Co
  Co59     1.0000 0.12594  0.12594  0.62594  Biso   1.000  Co
  Co60     1.0000 0.17951  0.17951  0.67951  Biso   1.000  Co
  Co61     1.0000 0.87406  0.12594  0.37406  Biso   1.000  Co
  Co62     1.0000 0.82049  0.17951  0.32049  Biso   1.000  Co
  Co63     1.0000 0.87406  0.87406  0.62594  Biso   1.000  Co
  Co64     1.0000 0.82049  0.82049  0.67951  Biso   1.000  Co
  Co65     1.0000 0.37406  0.12594  0.87406  Biso   1.000  Co
  Co66     1.0000 0.32049  0.17951  0.82049  Biso   1.000  Co
  Co67     1.0000 0.37406  0.62594  0.37406  Biso   1.000  Co
  Co68     1.0000 0.32049  0.67951  0.32049  Biso   1.000  Co
  Co69     1.0000 0.62594  0.12594  0.12594  Biso   1.000  Co
  Co70     1.0000 0.67951  0.17951  0.17951  Biso   1.000  Co
  Co71     1.0000 0.62594  0.62594  0.62594  Biso   1.000  Co
  Co72     1.0000 0.67951  0.67951  0.67951  Biso   1.000  Co
  Co73     1.0000 0.37406  0.87406  0.12594  Biso   1.000  Co
  Co74     1.0000 0.32049  0.82049  0.17951  Biso   1.000  Co
  Co75     1.0000 0.37406  0.37406  0.62594  Biso   1.000  Co
  Co76     1.0000 0.32049  0.32049  0.67951  Biso   1.000  Co
  Co77     1.0000 0.62594  0.87406  0.87406  Biso   1.000  Co
  Co78     1.0000 0.67951  0.82049  0.82049  Biso   1.000  Co
  Co79     1.0000 0.62594  0.37406  0.37406  Biso   1.000  Co
  Co80     1.0000 0.67951  0.32049  0.32049  Biso   1.000  Co
  Co81     1.0000 0.37406  0.87406  0.87406  Biso   1.000  Co
  Co82     1.0000 0.32049  0.82049  0.82049  Biso   1.000  Co
  Co83     1.0000 0.37406  0.37406  0.37406  Biso   1.000  Co
  Co84     1.0000 0.32049  0.32049  0.32049  Biso   1.000  Co
  Co85     1.0000 0.62594  0.12594  0.87406  Biso   1.000  Co
  Co86     1.0000 0.67951  0.17951  0.82049  Biso   1.000  Co
  Co87     1.0000 0.62594  0.62594  0.37406  Biso   1.000  Co
  Co88     1.0000 0.67951  0.67951  0.32049  Biso   1.000  Co
  Co89     1.0000 0.37406  0.12594  0.12594  Biso   1.000  Co
  Co90     1.0000 0.32049  0.17951  0.17951  Biso   1.000  Co
  Co91     1.0000 0.37406  0.62594  0.62594  Biso   1.000  Co
  Co92     1.0000 0.32049  0.67951  0.67951  Biso   1.000  Co
  Co93     1.0000 0.62594  0.87406  0.12594  Biso   1.000  Co
  Co94     1.0000 0.67951  0.82049  0.17951  Biso   1.000  Co
  Co95     1.0000 0.62594  0.37406  0.62594  Biso   1.000  Co
  Co96     1.0000 0.67951  0.32049  0.67951  Biso   1.000  Co
  Co97     1.0000 0.87406  0.12594  0.62594  Biso   1.000  Co
  Co98     1.0000 0.82049  0.17951  0.67951  Biso   1.000  Co
  Co99     1.0000 0.12594  0.12594  0.37406  Biso   1.000  Co
  Co100    1.0000 0.17951  0.17951  0.32049  Biso   1.000  Co
  Co101    1.0000 0.12594  0.87406  0.62594  Biso   1.000  Co
  Co102    1.0000 0.17951  0.82049  0.67951  Biso   1.000  Co
  Co103    1.0000 0.87406  0.87406  0.37406  Biso   1.000  Co
  Co104    1.0000 0.82049  0.82049  0.32049  Biso   1.000  Co
  Co105    1.0000 0.12594  0.37406  0.12594  Biso   1.000  Co
  Co106    1.0000 0.17951  0.32049  0.17951  Biso   1.000  Co
  Co107    1.0000 0.12594  0.62594  0.87406  Biso   1.000  Co
  Co108    1.0000 0.17951  0.67951  0.82049  Biso   1.000  Co
  Co109    1.0000 0.87406  0.37406  0.87406  Biso   1.000  Co
  Co110    1.0000 0.82049  0.32049  0.82049  Biso   1.000  Co
  Co111    1.0000 0.87406  0.62594  0.12594  Biso   1.000  Co
  Co112    1.0000 0.82049  0.67951  0.17951  Biso   1.000  Co
  O1       1.0000 0.96365  0.26310  0.03635  Biso   1.000  O
  O2       1.0000 0.96392  0.20550  0.03608  Biso   1.000  O
  O3       1.0000 0.84999  0.29515  0.15001  Biso   1.000  O
  O4       1.0000 0.88464  0.32516  0.11536  Biso   1.000  O
  O5       1.0000 0.87740  0.42880  0.12260  Biso   1.000  O
  C1       1.0000 0.95330  0.23380  0.04670  Biso   1.000  C
  C2       1.0000 0.92588  0.23530  0.07412  Biso   1.000  C
  C3       1.0000 0.91375  0.20370  0.08625  Biso   1.000  C
  H1729    1.0000 0.92260  0.18320  0.07740  Biso   1.000  H
  C4       1.0000 0.88744  0.20260  0.11256  Biso   1.000  C
  C5       1.0000 0.87545  0.23380  0.12455  Biso   1.000  C
  H1730    1.0000 0.85850  0.23410  0.14150  Biso   1.000  H
  C6       1.0000 0.88780  0.26440  0.11220  Biso   1.000  C
  C7       1.0000 0.91306  0.26570  0.08694  Biso   1.000  C
  H1731    1.0000 0.92120  0.28680  0.07880  Biso   1.000  H
  C8       1.0000 0.87310  0.29900  0.12690  Biso   1.000  C
  C9       1.0000 0.87315  0.16960  0.12685  Biso   1.000  C
  H1732    1.0000 0.86090  0.43938  0.13910  Biso   1.000  H
  O6       1.0000 0.89910  0.41300  0.10090  Biso   1.000  O
  O7       1.0000 0.96365  0.76310  0.53635  Biso   1.000  O
  O8       1.0000 0.96392  0.70550  0.53608  Biso   1.000  O
  O9       1.0000 0.84999  0.79515  0.65001  Biso   1.000  O
  O10      1.0000 0.88464  0.82516  0.61536  Biso   1.000  O
  O11      1.0000 0.87740  0.92880  0.62260  Biso   1.000  O
  C10      1.0000 0.95330  0.73380  0.54670  Biso   1.000  C
  C11      1.0000 0.92588  0.73530  0.57412  Biso   1.000  C
  C12      1.0000 0.91375  0.70370  0.58625  Biso   1.000  C
  H1733    1.0000 0.92260  0.68320  0.57740  Biso   1.000  H
  C13      1.0000 0.88744  0.70260  0.61256  Biso   1.000  C
  C14      1.0000 0.87545  0.73380  0.62455  Biso   1.000  C
  H1734    1.0000 0.85850  0.73410  0.64150  Biso   1.000  H
  C15      1.0000 0.88780  0.76440  0.61220  Biso   1.000  C
  C16      1.0000 0.91306  0.76570  0.58694  Biso   1.000  C
  H1735    1.0000 0.92120  0.78680  0.57880  Biso   1.000  H
  C17      1.0000 0.87310  0.79900  0.62690  Biso   1.000  C
  C18      1.0000 0.87315  0.66960  0.62685  Biso   1.000  C
  H1736    1.0000 0.86090  0.93938  0.63910  Biso   1.000  H
  O12      1.0000 0.89910  0.91300  0.60090  Biso   1.000  O
  O13      1.0000 0.46365  0.26310  0.53635  Biso   1.000  O
  O14      1.0000 0.46392  0.20550  0.53608  Biso   1.000  O
  O15      1.0000 0.34999  0.29515  0.65001  Biso   1.000  O
  O16      1.0000 0.38464  0.32516  0.61536  Biso   1.000  O
  O17      1.0000 0.37740  0.42880  0.62260  Biso   1.000  O
  C19      1.0000 0.45330  0.23380  0.54670  Biso   1.000  C
  C20      1.0000 0.42588  0.23530  0.57412  Biso   1.000  C
  C21      1.0000 0.41375  0.20370  0.58625  Biso   1.000  C
  H1737    1.0000 0.42260  0.18320  0.57740  Biso   1.000  H
  C22      1.0000 0.38744  0.20260  0.61256  Biso   1.000  C
  C23      1.0000 0.37545  0.23380  0.62455  Biso   1.000  C
  H1738    1.0000 0.35850  0.23410  0.64150  Biso   1.000  H
  C24      1.0000 0.38780  0.26440  0.61220  Biso   1.000  C
  C25      1.0000 0.41306  0.26570  0.58694  Biso   1.000  C
  H1739    1.0000 0.42120  0.28680  0.57880  Biso   1.000  H
  C26      1.0000 0.37310  0.29900  0.62690  Biso   1.000  C
  C27      1.0000 0.37315  0.16960  0.62685  Biso   1.000  C
  H1740    1.0000 0.36090  0.43938  0.63910  Biso   1.000  H
  O18      1.0000 0.39910  0.41300  0.60090  Biso   1.000  O
  O19      1.0000 0.46365  0.76310  0.03635  Biso   1.000  O
  O20      1.0000 0.46392  0.70550  0.03608  Biso   1.000  O
  O21      1.0000 0.34999  0.79515  0.15001  Biso   1.000  O
  O22      1.0000 0.38464  0.82516  0.11536  Biso   1.000  O
  O23      1.0000 0.37740  0.92880  0.12260  Biso   1.000  O
  C28      1.0000 0.45330  0.73380  0.04670  Biso   1.000  C
  C29      1.0000 0.42588  0.73530  0.07412  Biso   1.000  C
  C30      1.0000 0.41375  0.70370  0.08625  Biso   1.000  C
  H1741    1.0000 0.42260  0.68320  0.07740  Biso   1.000  H
  C31      1.0000 0.38744  0.70260  0.11256  Biso   1.000  C
  C32      1.0000 0.37545  0.73380  0.12455  Biso   1.000  C
  H1742    1.0000 0.35850  0.73410  0.14150  Biso   1.000  H
  C33      1.0000 0.38780  0.76440  0.11220  Biso   1.000  C
  C34      1.0000 0.41306  0.76570  0.08694  Biso   1.000  C
  H1743    1.0000 0.42120  0.78680  0.07880  Biso   1.000  H
  C35      1.0000 0.37310  0.79900  0.12690  Biso   1.000  C
  C36      1.0000 0.37315  0.66960  0.12685  Biso   1.000  C
  H1744    1.0000 0.36090  0.93938  0.13910  Biso   1.000  H
  O24      1.0000 0.39910  0.91300  0.10090  Biso   1.000  O
  O25      1.0000 0.03635  0.73690  0.03635  Biso   1.000  O
  O26      1.0000 0.03608  0.79450  0.03608  Biso   1.000  O
  O27      1.0000 0.15001  0.70485  0.15001  Biso   1.000  O
  O28      1.0000 0.11536  0.67484  0.11536  Biso   1.000  O
  O29      1.0000 0.12260  0.57120  0.12260  Biso   1.000  O
  C37      1.0000 0.04670  0.76620  0.04670  Biso   1.000  C
  C38      1.0000 0.07412  0.76470  0.07412  Biso   1.000  C
  C39      1.0000 0.08625  0.79630  0.08625  Biso   1.000  C
  H1745    1.0000 0.07740  0.81680  0.07740  Biso   1.000  H
  C40      1.0000 0.11256  0.79740  0.11256  Biso   1.000  C
  C41      1.0000 0.12455  0.76620  0.12455  Biso   1.000  C
  H1746    1.0000 0.14150  0.76590  0.14150  Biso   1.000  H
  C42      1.0000 0.11220  0.73560  0.11220  Biso   1.000  C
  C43      1.0000 0.08694  0.73430  0.08694  Biso   1.000  C
  H1747    1.0000 0.07880  0.71320  0.07880  Biso   1.000  H
  C44      1.0000 0.12690  0.70100  0.12690  Biso   1.000  C
  C45      1.0000 0.12685  0.83040  0.12685  Biso   1.000  C
  H1748    1.0000 0.13910  0.56062  0.13910  Biso   1.000  H
  O30      1.0000 0.10090  0.58700  0.10090  Biso   1.000  O
  O31      1.0000 0.03635  0.23690  0.53635  Biso   1.000  O
  O32      1.0000 0.03608  0.29450  0.53608  Biso   1.000  O
  O33      1.0000 0.15001  0.20485  0.65001  Biso   1.000  O
  O34      1.0000 0.11536  0.17484  0.61536  Biso   1.000  O
  O35      1.0000 0.12260  0.07120  0.62260  Biso   1.000  O
  C46      1.0000 0.04670  0.26620  0.54670  Biso   1.000  C
  C47      1.0000 0.07412  0.26470  0.57412  Biso   1.000  C
  C48      1.0000 0.08625  0.29630  0.58625  Biso   1.000  C
  H1749    1.0000 0.07740  0.31680  0.57740  Biso   1.000  H
  C49      1.0000 0.11256  0.29740  0.61256  Biso   1.000  C
  C50      1.0000 0.12455  0.26620  0.62455  Biso   1.000  C
  H1750    1.0000 0.14150  0.26590  0.64150  Biso   1.000  H
  C51      1.0000 0.11220  0.23560  0.61220  Biso   1.000  C
  C52      1.0000 0.08694  0.23430  0.58694  Biso   1.000  C
  H1751    1.0000 0.07880  0.21320  0.57880  Biso   1.000  H
  C53      1.0000 0.12690  0.20100  0.62690  Biso   1.000  C
  C54      1.0000 0.12685  0.33040  0.62685  Biso   1.000  C
  H1752    1.0000 0.13910  0.06062  0.63910  Biso   1.000  H
  O36      1.0000 0.10090  0.08700  0.60090  Biso   1.000  O
  O37      1.0000 0.53635  0.73690  0.53635  Biso   1.000  O
  O38      1.0000 0.53608  0.79450  0.53608  Biso   1.000  O
  O39      1.0000 0.65001  0.70485  0.65001  Biso   1.000  O
  O40      1.0000 0.61536  0.67484  0.61536  Biso   1.000  O
  O41      1.0000 0.62260  0.57120  0.62260  Biso   1.000  O
  C55      1.0000 0.54670  0.76620  0.54670  Biso   1.000  C
  C56      1.0000 0.57412  0.76470  0.57412  Biso   1.000  C
  C57      1.0000 0.58625  0.79630  0.58625  Biso   1.000  C
  H1753    1.0000 0.57740  0.81680  0.57740  Biso   1.000  H
  C58      1.0000 0.61256  0.79740  0.61256  Biso   1.000  C
  C59      1.0000 0.62455  0.76620  0.62455  Biso   1.000  C
  H1754    1.0000 0.64150  0.76590  0.64150  Biso   1.000  H
  C60      1.0000 0.61220  0.73560  0.61220  Biso   1.000  C
  C61      1.0000 0.58694  0.73430  0.58694  Biso   1.000  C
  H1755    1.0000 0.57880  0.71320  0.57880  Biso   1.000  H
  C62      1.0000 0.62690  0.70100  0.62690  Biso   1.000  C
  C63      1.0000 0.62685  0.83040  0.62685  Biso   1.000  C
  H1756    1.0000 0.63910  0.56062  0.63910  Biso   1.000  H
  O42      1.0000 0.60090  0.58700  0.60090  Biso   1.000  O
  O43      1.0000 0.53635  0.23690  0.03635  Biso   1.000  O
  O44      1.0000 0.53608  0.29450  0.03608  Biso   1.000  O
  O45      1.0000 0.65001  0.20485  0.15001  Biso   1.000  O
  O46      1.0000 0.61536  0.17484  0.11536  Biso   1.000  O
  O47      1.0000 0.62260  0.07120  0.12260  Biso   1.000  O
  C64      1.0000 0.54670  0.26620  0.04670  Biso   1.000  C
  C65      1.0000 0.57412  0.26470  0.07412  Biso   1.000  C
  C66      1.0000 0.58625  0.29630  0.08625  Biso   1.000  C
  H1757    1.0000 0.57740  0.31680  0.07740  Biso   1.000  H
  C67      1.0000 0.61256  0.29740  0.11256  Biso   1.000  C
  C68      1.0000 0.62455  0.26620  0.12455  Biso   1.000  C
  H1758    1.0000 0.64150  0.26590  0.14150  Biso   1.000  H
  C69      1.0000 0.61220  0.23560  0.11220  Biso   1.000  C
  C70      1.0000 0.58694  0.23430  0.08694  Biso   1.000  C
  H1759    1.0000 0.57880  0.21320  0.07880  Biso   1.000  H
  C71      1.0000 0.62690  0.20100  0.12690  Biso   1.000  C
  C72      1.0000 0.62685  0.33040  0.12685  Biso   1.000  C
  H1760    1.0000 0.63910  0.06062  0.13910  Biso   1.000  H
  O48      1.0000 0.60090  0.08700  0.10090  Biso   1.000  O
  O49      1.0000 0.03635  0.26310  0.96365  Biso   1.000  O
  O50      1.0000 0.03608  0.20550  0.96392  Biso   1.000  O
  O51      1.0000 0.15001  0.29515  0.84999  Biso   1.000  O
  O52      1.0000 0.11536  0.32516  0.88464  Biso   1.000  O
  O53      1.0000 0.12260  0.42880  0.87740  Biso   1.000  O
  C73      1.0000 0.04670  0.23380  0.95330  Biso   1.000  C
  C74      1.0000 0.07412  0.23530  0.92588  Biso   1.000  C
  C75      1.0000 0.08625  0.20370  0.91375  Biso   1.000  C
  H1761    1.0000 0.07740  0.18320  0.92260  Biso   1.000  H
  C76      1.0000 0.11256  0.20260  0.88744  Biso   1.000  C
  C77      1.0000 0.12455  0.23380  0.87545  Biso   1.000  C
  H1762    1.0000 0.14150  0.23410  0.85850  Biso   1.000  H
  C78      1.0000 0.11220  0.26440  0.88780  Biso   1.000  C
  C79      1.0000 0.08694  0.26570  0.91306  Biso   1.000  C
  H1763    1.0000 0.07880  0.28680  0.92120  Biso   1.000  H
  C80      1.0000 0.12690  0.29900  0.87310  Biso   1.000  C
  C81      1.0000 0.12685  0.16960  0.87315  Biso   1.000  C
  H1764    1.0000 0.13910  0.43938  0.86090  Biso   1.000  H
  O54      1.0000 0.10090  0.41300  0.89910  Biso   1.000  O
  O55      1.0000 0.03635  0.76310  0.46365  Biso   1.000  O
  O56      1.0000 0.03608  0.70550  0.46392  Biso   1.000  O
  O57      1.0000 0.15001  0.79515  0.34999  Biso   1.000  O
  O58      1.0000 0.11536  0.82516  0.38464  Biso   1.000  O
  O59      1.0000 0.12260  0.92880  0.37740  Biso   1.000  O
  C82      1.0000 0.04670  0.73380  0.45330  Biso   1.000  C
  C83      1.0000 0.07412  0.73530  0.42588  Biso   1.000  C
  C84      1.0000 0.08625  0.70370  0.41375  Biso   1.000  C
  H1765    1.0000 0.07740  0.68320  0.42260  Biso   1.000  H
  C85      1.0000 0.11256  0.70260  0.38744  Biso   1.000  C
  C86      1.0000 0.12455  0.73380  0.37545  Biso   1.000  C
  H1766    1.0000 0.14150  0.73410  0.35850  Biso   1.000  H
  C87      1.0000 0.11220  0.76440  0.38780  Biso   1.000  C
  C88      1.0000 0.08694  0.76570  0.41306  Biso   1.000  C
  H1767    1.0000 0.07880  0.78680  0.42120  Biso   1.000  H
  C89      1.0000 0.12690  0.79900  0.37310  Biso   1.000  C
  C90      1.0000 0.12685  0.66960  0.37315  Biso   1.000  C
  H1768    1.0000 0.13910  0.93938  0.36090  Biso   1.000  H
  O60      1.0000 0.10090  0.91300  0.39910  Biso   1.000  O
  O61      1.0000 0.53635  0.26310  0.46365  Biso   1.000  O
  O62      1.0000 0.53608  0.20550  0.46392  Biso   1.000  O
  O63      1.0000 0.65001  0.29515  0.34999  Biso   1.000  O
  O64      1.0000 0.61536  0.32516  0.38464  Biso   1.000  O
  O65      1.0000 0.62260  0.42880  0.37740  Biso   1.000  O
  C91      1.0000 0.54670  0.23380  0.45330  Biso   1.000  C
  C92      1.0000 0.57412  0.23530  0.42588  Biso   1.000  C
  C93      1.0000 0.58625  0.20370  0.41375  Biso   1.000  C
  H1769    1.0000 0.57740  0.18320  0.42260  Biso   1.000  H
  C94      1.0000 0.61256  0.20260  0.38744  Biso   1.000  C
  C95      1.0000 0.62455  0.23380  0.37545  Biso   1.000  C
  H1770    1.0000 0.64150  0.23410  0.35850  Biso   1.000  H
  C96      1.0000 0.61220  0.26440  0.38780  Biso   1.000  C
  C97      1.0000 0.58694  0.26570  0.41306  Biso   1.000  C
  H1771    1.0000 0.57880  0.28680  0.42120  Biso   1.000  H
  C98      1.0000 0.62690  0.29900  0.37310  Biso   1.000  C
  C99      1.0000 0.62685  0.16960  0.37315  Biso   1.000  C
  H1772    1.0000 0.63910  0.43938  0.36090  Biso   1.000  H
  O66      1.0000 0.60090  0.41300  0.39910  Biso   1.000  O
  O67      1.0000 0.53635  0.76310  0.96365  Biso   1.000  O
  O68      1.0000 0.53608  0.70550  0.96392  Biso   1.000  O
  O69      1.0000 0.65001  0.79515  0.84999  Biso   1.000  O
  O70      1.0000 0.61536  0.82516  0.88464  Biso   1.000  O
  O71      1.0000 0.62260  0.92880  0.87740  Biso   1.000  O
  C100     1.0000 0.54670  0.73380  0.95330  Biso   1.000  C
  C101     1.0000 0.57412  0.73530  0.92588  Biso   1.000  C
  C102     1.0000 0.58625  0.70370  0.91375  Biso   1.000  C
  H1773    1.0000 0.57740  0.68320  0.92260  Biso   1.000  H
  C103     1.0000 0.61256  0.70260  0.88744  Biso   1.000  C
  C104     1.0000 0.62455  0.73380  0.87545  Biso   1.000  C
  H1774    1.0000 0.64150  0.73410  0.85850  Biso   1.000  H
  C105     1.0000 0.61220  0.76440  0.88780  Biso   1.000  C
  C106     1.0000 0.58694  0.76570  0.91306  Biso   1.000  C
  H1775    1.0000 0.57880  0.78680  0.92120  Biso   1.000  H
  C107     1.0000 0.62690  0.79900  0.87310  Biso   1.000  C
  C108     1.0000 0.62685  0.66960  0.87315  Biso   1.000  C
  H1776    1.0000 0.63910  0.93938  0.86090  Biso   1.000  H
  O72      1.0000 0.60090  0.91300  0.89910  Biso   1.000  O
  O73      1.0000 0.96365  0.73690  0.96365  Biso   1.000  O
  O74      1.0000 0.96392  0.79450  0.96392  Biso   1.000  O
  O75      1.0000 0.84999  0.70485  0.84999  Biso   1.000  O
  O76      1.0000 0.88464  0.67484  0.88464  Biso   1.000  O
  O77      1.0000 0.87740  0.57120  0.87740  Biso   1.000  O
  C109     1.0000 0.95330  0.76620  0.95330  Biso   1.000  C
  C110     1.0000 0.92588  0.76470  0.92588  Biso   1.000  C
  C111     1.0000 0.91375  0.79630  0.91375  Biso   1.000  C
  H1777    1.0000 0.92260  0.81680  0.92260  Biso   1.000  H
  C112     1.0000 0.88744  0.79740  0.88744  Biso   1.000  C
  C113     1.0000 0.87545  0.76620  0.87545  Biso   1.000  C
  H1778    1.0000 0.85850  0.76590  0.85850  Biso   1.000  H
  C114     1.0000 0.88780  0.73560  0.88780  Biso   1.000  C
  C115     1.0000 0.91306  0.73430  0.91306  Biso   1.000  C
  H1779    1.0000 0.92120  0.71320  0.92120  Biso   1.000  H
  C116     1.0000 0.87310  0.70100  0.87310  Biso   1.000  C
  C117     1.0000 0.87315  0.83040  0.87315  Biso   1.000  C
  H1780    1.0000 0.86090  0.56062  0.86090  Biso   1.000  H
  O78      1.0000 0.89910  0.58700  0.89910  Biso   1.000  O
  O79      1.0000 0.96365  0.23690  0.46365  Biso   1.000  O
  O80      1.0000 0.96392  0.29450  0.46392  Biso   1.000  O
  O81      1.0000 0.84999  0.20485  0.34999  Biso   1.000  O
  O82      1.0000 0.88464  0.17484  0.38464  Biso   1.000  O
  O83      1.0000 0.87740  0.07120  0.37740  Biso   1.000  O
  C118     1.0000 0.95330  0.26620  0.45330  Biso   1.000  C
  C119     1.0000 0.92588  0.26470  0.42588  Biso   1.000  C
  C120     1.0000 0.91375  0.29630  0.41375  Biso   1.000  C
  H1781    1.0000 0.92260  0.31680  0.42260  Biso   1.000  H
  C121     1.0000 0.88744  0.29740  0.38744  Biso   1.000  C
  C122     1.0000 0.87545  0.26620  0.37545  Biso   1.000  C
  H1782    1.0000 0.85850  0.26590  0.35850  Biso   1.000  H
  C123     1.0000 0.88780  0.23560  0.38780  Biso   1.000  C
  C124     1.0000 0.91306  0.23430  0.41306  Biso   1.000  C
  H1783    1.0000 0.92120  0.21320  0.42120  Biso   1.000  H
  C125     1.0000 0.87310  0.20100  0.37310  Biso   1.000  C
  C126     1.0000 0.87315  0.33040  0.37315  Biso   1.000  C
  H1784    1.0000 0.86090  0.06062  0.36090  Biso   1.000  H
  O84      1.0000 0.89910  0.08700  0.39910  Biso   1.000  O
  O85      1.0000 0.46365  0.73690  0.46365  Biso   1.000  O
  O86      1.0000 0.46392  0.79450  0.46392  Biso   1.000  O
  O87      1.0000 0.34999  0.70485  0.34999  Biso   1.000  O
  O88      1.0000 0.38464  0.67484  0.38464  Biso   1.000  O
  O89      1.0000 0.37740  0.57120  0.37740  Biso   1.000  O
  C127     1.0000 0.45330  0.76620  0.45330  Biso   1.000  C
  C128     1.0000 0.42588  0.76470  0.42588  Biso   1.000  C
  C129     1.0000 0.41375  0.79630  0.41375  Biso   1.000  C
  H1785    1.0000 0.42260  0.81680  0.42260  Biso   1.000  H
  C130     1.0000 0.38744  0.79740  0.38744  Biso   1.000  C
  C131     1.0000 0.37545  0.76620  0.37545  Biso   1.000  C
  H1786    1.0000 0.35850  0.76590  0.35850  Biso   1.000  H
  C132     1.0000 0.38780  0.73560  0.38780  Biso   1.000  C
  C133     1.0000 0.41306  0.73430  0.41306  Biso   1.000  C
  H1787    1.0000 0.42120  0.71320  0.42120  Biso   1.000  H
  C134     1.0000 0.37310  0.70100  0.37310  Biso   1.000  C
  C135     1.0000 0.37315  0.83040  0.37315  Biso   1.000  C
  H1788    1.0000 0.36090  0.56062  0.36090  Biso   1.000  H
  O90      1.0000 0.39910  0.58700  0.39910  Biso   1.000  O
  O91      1.0000 0.46365  0.23690  0.96365  Biso   1.000  O
  O92      1.0000 0.46392  0.29450  0.96392  Biso   1.000  O
  O93      1.0000 0.34999  0.20485  0.84999  Biso   1.000  O
  O94      1.0000 0.38464  0.17484  0.88464  Biso   1.000  O
  O95      1.0000 0.37740  0.07120  0.87740  Biso   1.000  O
  C136     1.0000 0.45330  0.26620  0.95330  Biso   1.000  C
  C137     1.0000 0.42588  0.26470  0.92588  Biso   1.000  C
  C138     1.0000 0.41375  0.29630  0.91375  Biso   1.000  C
  H1789    1.0000 0.42260  0.31680  0.92260  Biso   1.000  H
  C139     1.0000 0.38744  0.29740  0.88744  Biso   1.000  C
  C140     1.0000 0.37545  0.26620  0.87545  Biso   1.000  C
  H1790    1.0000 0.35850  0.26590  0.85850  Biso   1.000  H
  C141     1.0000 0.38780  0.23560  0.88780  Biso   1.000  C
  C142     1.0000 0.41306  0.23430  0.91306  Biso   1.000  C
  H1791    1.0000 0.42120  0.21320  0.92120  Biso   1.000  H
  C143     1.0000 0.37310  0.20100  0.87310  Biso   1.000  C
  C144     1.0000 0.37315  0.33040  0.87315  Biso   1.000  C
  H1792    1.0000 0.36090  0.06062  0.86090  Biso   1.000  H
  O96      1.0000 0.39910  0.08700  0.89910  Biso   1.000  O
  O97      1.0000 0.03635  0.96365  0.26310  Biso   1.000  O
  O98      1.0000 0.03608  0.96392  0.20550  Biso   1.000  O
  O99      1.0000 0.15001  0.84999  0.29515  Biso   1.000  O
  O100     1.0000 0.11536  0.88464  0.32516  Biso   1.000  O
  O101     1.0000 0.12260  0.87740  0.42880  Biso   1.000  O
  C145     1.0000 0.04670  0.95330  0.23380  Biso   1.000  C
  C146     1.0000 0.07412  0.92588  0.23530  Biso   1.000  C
  C147     1.0000 0.08625  0.91375  0.20370  Biso   1.000  C
  H1793    1.0000 0.07740  0.92260  0.18320  Biso   1.000  H
  C148     1.0000 0.11256  0.88744  0.20260  Biso   1.000  C
  C149     1.0000 0.12455  0.87545  0.23380  Biso   1.000  C
  H1794    1.0000 0.14150  0.85850  0.23410  Biso   1.000  H
  C150     1.0000 0.11220  0.88780  0.26440  Biso   1.000  C
  C151     1.0000 0.08694  0.91306  0.26570  Biso   1.000  C
  H1795    1.0000 0.07880  0.92120  0.28680  Biso   1.000  H
  C152     1.0000 0.12690  0.87310  0.29900  Biso   1.000  C
  C153     1.0000 0.12685  0.87315  0.16960  Biso   1.000  C
  H1796    1.0000 0.13910  0.86090  0.43938  Biso   1.000  H
  O102     1.0000 0.10090  0.89910  0.41300  Biso   1.000  O
  O103     1.0000 0.03635  0.46365  0.76310  Biso   1.000  O
  O104     1.0000 0.03608  0.46392  0.70550  Biso   1.000  O
  O105     1.0000 0.15001  0.34999  0.79515  Biso   1.000  O
  O106     1.0000 0.11536  0.38464  0.82516  Biso   1.000  O
  O107     1.0000 0.12260  0.37740  0.92880  Biso   1.000  O
  C154     1.0000 0.04670  0.45330  0.73380  Biso   1.000  C
  C155     1.0000 0.07412  0.42588  0.73530  Biso   1.000  C
  C156     1.0000 0.08625  0.41375  0.70370  Biso   1.000  C
  H1797    1.0000 0.07740  0.42260  0.68320  Biso   1.000  H
  C157     1.0000 0.11256  0.38744  0.70260  Biso   1.000  C
  C158     1.0000 0.12455  0.37545  0.73380  Biso   1.000  C
  H1798    1.0000 0.14150  0.35850  0.73410  Biso   1.000  H
  C159     1.0000 0.11220  0.38780  0.76440  Biso   1.000  C
  C160     1.0000 0.08694  0.41306  0.76570  Biso   1.000  C
  H1799    1.0000 0.07880  0.42120  0.78680  Biso   1.000  H
  C161     1.0000 0.12690  0.37310  0.79900  Biso   1.000  C
  C162     1.0000 0.12685  0.37315  0.66960  Biso   1.000  C
  H1800    1.0000 0.13910  0.36090  0.93938  Biso   1.000  H
  O108     1.0000 0.10090  0.39910  0.91300  Biso   1.000  O
  O109     1.0000 0.53635  0.96365  0.76310  Biso   1.000  O
  O110     1.0000 0.53608  0.96392  0.70550  Biso   1.000  O
  O111     1.0000 0.65001  0.84999  0.79515  Biso   1.000  O
  O112     1.0000 0.61536  0.88464  0.82516  Biso   1.000  O
  O113     1.0000 0.62260  0.87740  0.92880  Biso   1.000  O
  C163     1.0000 0.54670  0.95330  0.73380  Biso   1.000  C
  C164     1.0000 0.57412  0.92588  0.73530  Biso   1.000  C
  C165     1.0000 0.58625  0.91375  0.70370  Biso   1.000  C
  H1801    1.0000 0.57740  0.92260  0.68320  Biso   1.000  H
  C166     1.0000 0.61256  0.88744  0.70260  Biso   1.000  C
  C167     1.0000 0.62455  0.87545  0.73380  Biso   1.000  C
  H1802    1.0000 0.64150  0.85850  0.73410  Biso   1.000  H
  C168     1.0000 0.61220  0.88780  0.76440  Biso   1.000  C
  C169     1.0000 0.58694  0.91306  0.76570  Biso   1.000  C
  H1803    1.0000 0.57880  0.92120  0.78680  Biso   1.000  H
  C170     1.0000 0.62690  0.87310  0.79900  Biso   1.000  C
  C171     1.0000 0.62685  0.87315  0.66960  Biso   1.000  C
  H1804    1.0000 0.63910  0.86090  0.93938  Biso   1.000  H
  O114     1.0000 0.60090  0.89910  0.91300  Biso   1.000  O
  O115     1.0000 0.53635  0.46365  0.26310  Biso   1.000  O
  O116     1.0000 0.53608  0.46392  0.20550  Biso   1.000  O
  O117     1.0000 0.65001  0.34999  0.29515  Biso   1.000  O
  O118     1.0000 0.61536  0.38464  0.32516  Biso   1.000  O
  O119     1.0000 0.62260  0.37740  0.42880  Biso   1.000  O
  C172     1.0000 0.54670  0.45330  0.23380  Biso   1.000  C
  C173     1.0000 0.57412  0.42588  0.23530  Biso   1.000  C
  C174     1.0000 0.58625  0.41375  0.20370  Biso   1.000  C
  H1805    1.0000 0.57740  0.42260  0.18320  Biso   1.000  H
  C175     1.0000 0.61256  0.38744  0.20260  Biso   1.000  C
  C176     1.0000 0.62455  0.37545  0.23380  Biso   1.000  C
  H1806    1.0000 0.64150  0.35850  0.23410  Biso   1.000  H
  C177     1.0000 0.61220  0.38780  0.26440  Biso   1.000  C
  C178     1.0000 0.58694  0.41306  0.26570  Biso   1.000  C
  H1807    1.0000 0.57880  0.42120  0.28680  Biso   1.000  H
  C179     1.0000 0.62690  0.37310  0.29900  Biso   1.000  C
  C180     1.0000 0.62685  0.37315  0.16960  Biso   1.000  C
  H1808    1.0000 0.63910  0.36090  0.43938  Biso   1.000  H
  O120     1.0000 0.60090  0.39910  0.41300  Biso   1.000  O
  O121     1.0000 0.03635  0.03635  0.73690  Biso   1.000  O
  O122     1.0000 0.03608  0.03608  0.79450  Biso   1.000  O
  O123     1.0000 0.15001  0.15001  0.70485  Biso   1.000  O
  O124     1.0000 0.11536  0.11536  0.67484  Biso   1.000  O
  O125     1.0000 0.12260  0.12260  0.57120  Biso   1.000  O
  C181     1.0000 0.04670  0.04670  0.76620  Biso   1.000  C
  C182     1.0000 0.07412  0.07412  0.76470  Biso   1.000  C
  C183     1.0000 0.08625  0.08625  0.79630  Biso   1.000  C
  H1809    1.0000 0.07740  0.07740  0.81680  Biso   1.000  H
  C184     1.0000 0.11256  0.11256  0.79740  Biso   1.000  C
  C185     1.0000 0.12455  0.12455  0.76620  Biso   1.000  C
  H1810    1.0000 0.14150  0.14150  0.76590  Biso   1.000  H
  C186     1.0000 0.11220  0.11220  0.73560  Biso   1.000  C
  C187     1.0000 0.08694  0.08694  0.73430  Biso   1.000  C
  H1811    1.0000 0.07880  0.07880  0.71320  Biso   1.000  H
  C188     1.0000 0.12690  0.12690  0.70100  Biso   1.000  C
  C189     1.0000 0.12685  0.12685  0.83040  Biso   1.000  C
  H1812    1.0000 0.13910  0.13910  0.56062  Biso   1.000  H
  O126     1.0000 0.10090  0.10090  0.58700  Biso   1.000  O
  O127     1.0000 0.03635  0.53635  0.23690  Biso   1.000  O
  O128     1.0000 0.03608  0.53608  0.29450  Biso   1.000  O
  O129     1.0000 0.15001  0.65001  0.20485  Biso   1.000  O
  O130     1.0000 0.11536  0.61536  0.17484  Biso   1.000  O
  O131     1.0000 0.12260  0.62260  0.07120  Biso   1.000  O
  C190     1.0000 0.04670  0.54670  0.26620  Biso   1.000  C
  C191     1.0000 0.07412  0.57412  0.26470  Biso   1.000  C
  C192     1.0000 0.08625  0.58625  0.29630  Biso   1.000  C
  H1813    1.0000 0.07740  0.57740  0.31680  Biso   1.000  H
  C193     1.0000 0.11256  0.61256  0.29740  Biso   1.000  C
  C194     1.0000 0.12455  0.62455  0.26620  Biso   1.000  C
  H1814    1.0000 0.14150  0.64150  0.26590  Biso   1.000  H
  C195     1.0000 0.11220  0.61220  0.23560  Biso   1.000  C
  C196     1.0000 0.08694  0.58694  0.23430  Biso   1.000  C
  H1815    1.0000 0.07880  0.57880  0.21320  Biso   1.000  H
  C197     1.0000 0.12690  0.62690  0.20100  Biso   1.000  C
  C198     1.0000 0.12685  0.62685  0.33040  Biso   1.000  C
  H1816    1.0000 0.13910  0.63910  0.06062  Biso   1.000  H
  O132     1.0000 0.10090  0.60090  0.08700  Biso   1.000  O
  O133     1.0000 0.53635  0.03635  0.23690  Biso   1.000  O
  O134     1.0000 0.53608  0.03608  0.29450  Biso   1.000  O
  O135     1.0000 0.65001  0.15001  0.20485  Biso   1.000  O
  O136     1.0000 0.61536  0.11536  0.17484  Biso   1.000  O
  O137     1.0000 0.62260  0.12260  0.07120  Biso   1.000  O
  C199     1.0000 0.54670  0.04670  0.26620  Biso   1.000  C
  C200     1.0000 0.57412  0.07412  0.26470  Biso   1.000  C
  C201     1.0000 0.58625  0.08625  0.29630  Biso   1.000  C
  H1817    1.0000 0.57740  0.07740  0.31680  Biso   1.000  H
  C202     1.0000 0.61256  0.11256  0.29740  Biso   1.000  C
  C203     1.0000 0.62455  0.12455  0.26620  Biso   1.000  C
  H1818    1.0000 0.64150  0.14150  0.26590  Biso   1.000  H
  C204     1.0000 0.61220  0.11220  0.23560  Biso   1.000  C
  C205     1.0000 0.58694  0.08694  0.23430  Biso   1.000  C
  H1819    1.0000 0.57880  0.07880  0.21320  Biso   1.000  H
  C206     1.0000 0.62690  0.12690  0.20100  Biso   1.000  C
  C207     1.0000 0.62685  0.12685  0.33040  Biso   1.000  C
  H1820    1.0000 0.63910  0.13910  0.06062  Biso   1.000  H
  O138     1.0000 0.60090  0.10090  0.08700  Biso   1.000  O
  O139     1.0000 0.53635  0.53635  0.73690  Biso   1.000  O
  O140     1.0000 0.53608  0.53608  0.79450  Biso   1.000  O
  O141     1.0000 0.65001  0.65001  0.70485  Biso   1.000  O
  O142     1.0000 0.61536  0.61536  0.67484  Biso   1.000  O
  O143     1.0000 0.62260  0.62260  0.57120  Biso   1.000  O
  C208     1.0000 0.54670  0.54670  0.76620  Biso   1.000  C
  C209     1.0000 0.57412  0.57412  0.76470  Biso   1.000  C
  C210     1.0000 0.58625  0.58625  0.79630  Biso   1.000  C
  H1821    1.0000 0.57740  0.57740  0.81680  Biso   1.000  H
  C211     1.0000 0.61256  0.61256  0.79740  Biso   1.000  C
  C212     1.0000 0.62455  0.62455  0.76620  Biso   1.000  C
  H1822    1.0000 0.64150  0.64150  0.76590  Biso   1.000  H
  C213     1.0000 0.61220  0.61220  0.73560  Biso   1.000  C
  C214     1.0000 0.58694  0.58694  0.73430  Biso   1.000  C
  H1823    1.0000 0.57880  0.57880  0.71320  Biso   1.000  H
  C215     1.0000 0.62690  0.62690  0.70100  Biso   1.000  C
  C216     1.0000 0.62685  0.62685  0.83040  Biso   1.000  C
  H1824    1.0000 0.63910  0.63910  0.56062  Biso   1.000  H
  O144     1.0000 0.60090  0.60090  0.58700  Biso   1.000  O
  O145     1.0000 0.96365  0.03635  0.26310  Biso   1.000  O
  O146     1.0000 0.96392  0.03608  0.20550  Biso   1.000  O
  O147     1.0000 0.84999  0.15001  0.29515  Biso   1.000  O
  O148     1.0000 0.88464  0.11536  0.32516  Biso   1.000  O
  O149     1.0000 0.87740  0.12260  0.42880  Biso   1.000  O
  C217     1.0000 0.95330  0.04670  0.23380  Biso   1.000  C
  C218     1.0000 0.92588  0.07412  0.23530  Biso   1.000  C
  C219     1.0000 0.91375  0.08625  0.20370  Biso   1.000  C
  H1825    1.0000 0.92260  0.07740  0.18320  Biso   1.000  H
  C220     1.0000 0.88744  0.11256  0.20260  Biso   1.000  C
  C221     1.0000 0.87545  0.12455  0.23380  Biso   1.000  C
  H1826    1.0000 0.85850  0.14150  0.23410  Biso   1.000  H
  C222     1.0000 0.88780  0.11220  0.26440  Biso   1.000  C
  C223     1.0000 0.91306  0.08694  0.26570  Biso   1.000  C
  H1827    1.0000 0.92120  0.07880  0.28680  Biso   1.000  H
  C224     1.0000 0.87310  0.12690  0.29900  Biso   1.000  C
  C225     1.0000 0.87315  0.12685  0.16960  Biso   1.000  C
  H1828    1.0000 0.86090  0.13910  0.43938  Biso   1.000  H
  O150     1.0000 0.89910  0.10090  0.41300  Biso   1.000  O
  O151     1.0000 0.96365  0.53635  0.76310  Biso   1.000  O
  O152     1.0000 0.96392  0.53608  0.70550  Biso   1.000  O
  O153     1.0000 0.84999  0.65001  0.79515  Biso   1.000  O
  O154     1.0000 0.88464  0.61536  0.82516  Biso   1.000  O
  O155     1.0000 0.87740  0.62260  0.92880  Biso   1.000  O
  C226     1.0000 0.95330  0.54670  0.73380  Biso   1.000  C
  C227     1.0000 0.92588  0.57412  0.73530  Biso   1.000  C
  C228     1.0000 0.91375  0.58625  0.70370  Biso   1.000  C
  H1829    1.0000 0.92260  0.57740  0.68320  Biso   1.000  H
  C229     1.0000 0.88744  0.61256  0.70260  Biso   1.000  C
  C230     1.0000 0.87545  0.62455  0.73380  Biso   1.000  C
  H1830    1.0000 0.85850  0.64150  0.73410  Biso   1.000  H
  C231     1.0000 0.88780  0.61220  0.76440  Biso   1.000  C
  C232     1.0000 0.91306  0.58694  0.76570  Biso   1.000  C
  H1831    1.0000 0.92120  0.57880  0.78680  Biso   1.000  H
  C233     1.0000 0.87310  0.62690  0.79900  Biso   1.000  C
  C234     1.0000 0.87315  0.62685  0.66960  Biso   1.000  C
  H1832    1.0000 0.86090  0.63910  0.93938  Biso   1.000  H
  O156     1.0000 0.89910  0.60090  0.91300  Biso   1.000  O
  O157     1.0000 0.46365  0.03635  0.76310  Biso   1.000  O
  O158     1.0000 0.46392  0.03608  0.70550  Biso   1.000  O
  O159     1.0000 0.34999  0.15001  0.79515  Biso   1.000  O
  O160     1.0000 0.38464  0.11536  0.82516  Biso   1.000  O
  O161     1.0000 0.37740  0.12260  0.92880  Biso   1.000  O
  C235     1.0000 0.45330  0.04670  0.73380  Biso   1.000  C
  C236     1.0000 0.42588  0.07412  0.73530  Biso   1.000  C
  C237     1.0000 0.41375  0.08625  0.70370  Biso   1.000  C
  H1833    1.0000 0.42260  0.07740  0.68320  Biso   1.000  H
  C238     1.0000 0.38744  0.11256  0.70260  Biso   1.000  C
  C239     1.0000 0.37545  0.12455  0.73380  Biso   1.000  C
  H1834    1.0000 0.35850  0.14150  0.73410  Biso   1.000  H
  C240     1.0000 0.38780  0.11220  0.76440  Biso   1.000  C
  C241     1.0000 0.41306  0.08694  0.76570  Biso   1.000  C
  H1835    1.0000 0.42120  0.07880  0.78680  Biso   1.000  H
  C242     1.0000 0.37310  0.12690  0.79900  Biso   1.000  C
  C243     1.0000 0.37315  0.12685  0.66960  Biso   1.000  C
  H1836    1.0000 0.36090  0.13910  0.93938  Biso   1.000  H
  O162     1.0000 0.39910  0.10090  0.91300  Biso   1.000  O
  O163     1.0000 0.46365  0.53635  0.26310  Biso   1.000  O
  O164     1.0000 0.46392  0.53608  0.20550  Biso   1.000  O
  O165     1.0000 0.34999  0.65001  0.29515  Biso   1.000  O
  O166     1.0000 0.38464  0.61536  0.32516  Biso   1.000  O
  O167     1.0000 0.37740  0.62260  0.42880  Biso   1.000  O
  C244     1.0000 0.45330  0.54670  0.23380  Biso   1.000  C
  C245     1.0000 0.42588  0.57412  0.23530  Biso   1.000  C
  C246     1.0000 0.41375  0.58625  0.20370  Biso   1.000  C
  H1837    1.0000 0.42260  0.57740  0.18320  Biso   1.000  H
  C247     1.0000 0.38744  0.61256  0.20260  Biso   1.000  C
  C248     1.0000 0.37545  0.62455  0.23380  Biso   1.000  C
  H1838    1.0000 0.35850  0.64150  0.23410  Biso   1.000  H
  C249     1.0000 0.38780  0.61220  0.26440  Biso   1.000  C
  C250     1.0000 0.41306  0.58694  0.26570  Biso   1.000  C
  H1839    1.0000 0.42120  0.57880  0.28680  Biso   1.000  H
  C251     1.0000 0.37310  0.62690  0.29900  Biso   1.000  C
  C252     1.0000 0.37315  0.62685  0.16960  Biso   1.000  C
  H1840    1.0000 0.36090  0.63910  0.43938  Biso   1.000  H
  O168     1.0000 0.39910  0.60090  0.41300  Biso   1.000  O
  O169     1.0000 0.96365  0.96365  0.73690  Biso   1.000  O
  O170     1.0000 0.96392  0.96392  0.79450  Biso   1.000  O
  O171     1.0000 0.84999  0.84999  0.70485  Biso   1.000  O
  O172     1.0000 0.88464  0.88464  0.67484  Biso   1.000  O
  O173     1.0000 0.87740  0.87740  0.57120  Biso   1.000  O
  C253     1.0000 0.95330  0.95330  0.76620  Biso   1.000  C
  C254     1.0000 0.92588  0.92588  0.76470  Biso   1.000  C
  C255     1.0000 0.91375  0.91375  0.79630  Biso   1.000  C
  H1841    1.0000 0.92260  0.92260  0.81680  Biso   1.000  H
  C256     1.0000 0.88744  0.88744  0.79740  Biso   1.000  C
  C257     1.0000 0.87545  0.87545  0.76620  Biso   1.000  C
  H1842    1.0000 0.85850  0.85850  0.76590  Biso   1.000  H
  C258     1.0000 0.88780  0.88780  0.73560  Biso   1.000  C
  C259     1.0000 0.91306  0.91306  0.73430  Biso   1.000  C
  H1843    1.0000 0.92120  0.92120  0.71320  Biso   1.000  H
  C260     1.0000 0.87310  0.87310  0.70100  Biso   1.000  C
  C261     1.0000 0.87315  0.87315  0.83040  Biso   1.000  C
  H1844    1.0000 0.86090  0.86090  0.56062  Biso   1.000  H
  O174     1.0000 0.89910  0.89910  0.58700  Biso   1.000  O
  O175     1.0000 0.96365  0.46365  0.23690  Biso   1.000  O
  O176     1.0000 0.96392  0.46392  0.29450  Biso   1.000  O
  O177     1.0000 0.84999  0.34999  0.20485  Biso   1.000  O
  O178     1.0000 0.88464  0.38464  0.17484  Biso   1.000  O
  O179     1.0000 0.87740  0.37740  0.07120  Biso   1.000  O
  C262     1.0000 0.95330  0.45330  0.26620  Biso   1.000  C
  C263     1.0000 0.92588  0.42588  0.26470  Biso   1.000  C
  C264     1.0000 0.91375  0.41375  0.29630  Biso   1.000  C
  H1845    1.0000 0.92260  0.42260  0.31680  Biso   1.000  H
  C265     1.0000 0.88744  0.38744  0.29740  Biso   1.000  C
  C266     1.0000 0.87545  0.37545  0.26620  Biso   1.000  C
  H1846    1.0000 0.85850  0.35850  0.26590  Biso   1.000  H
  C267     1.0000 0.88780  0.38780  0.23560  Biso   1.000  C
  C268     1.0000 0.91306  0.41306  0.23430  Biso   1.000  C
  H1847    1.0000 0.92120  0.42120  0.21320  Biso   1.000  H
  C269     1.0000 0.87310  0.37310  0.20100  Biso   1.000  C
  C270     1.0000 0.87315  0.37315  0.33040  Biso   1.000  C
  H1848    1.0000 0.86090  0.36090  0.06062  Biso   1.000  H
  O180     1.0000 0.89910  0.39910  0.08700  Biso   1.000  O
  O181     1.0000 0.46365  0.96365  0.23690  Biso   1.000  O
  O182     1.0000 0.46392  0.96392  0.29450  Biso   1.000  O
  O183     1.0000 0.34999  0.84999  0.20485  Biso   1.000  O
  O184     1.0000 0.38464  0.88464  0.17484  Biso   1.000  O
  O185     1.0000 0.37740  0.87740  0.07120  Biso   1.000  O
  C271     1.0000 0.45330  0.95330  0.26620  Biso   1.000  C
  C272     1.0000 0.42588  0.92588  0.26470  Biso   1.000  C
  C273     1.0000 0.41375  0.91375  0.29630  Biso   1.000  C
  H1849    1.0000 0.42260  0.92260  0.31680  Biso   1.000  H
  C274     1.0000 0.38744  0.88744  0.29740  Biso   1.000  C
  C275     1.0000 0.37545  0.87545  0.26620  Biso   1.000  C
  H1850    1.0000 0.35850  0.85850  0.26590  Biso   1.000  H
  C276     1.0000 0.38780  0.88780  0.23560  Biso   1.000  C
  C277     1.0000 0.41306  0.91306  0.23430  Biso   1.000  C
  H1851    1.0000 0.42120  0.92120  0.21320  Biso   1.000  H
  C278     1.0000 0.37310  0.87310  0.20100  Biso   1.000  C
  C279     1.0000 0.37315  0.87315  0.33040  Biso   1.000  C
  H1852    1.0000 0.36090  0.86090  0.06062  Biso   1.000  H
  O186     1.0000 0.39910  0.89910  0.08700  Biso   1.000  O
  O187     1.0000 0.46365  0.46365  0.73690  Biso   1.000  O
  O188     1.0000 0.46392  0.46392  0.79450  Biso   1.000  O
  O189     1.0000 0.34999  0.34999  0.70485  Biso   1.000  O
  O190     1.0000 0.38464  0.38464  0.67484  Biso   1.000  O
  O191     1.0000 0.37740  0.37740  0.57120  Biso   1.000  O
  C280     1.0000 0.45330  0.45330  0.76620  Biso   1.000  C
  C281     1.0000 0.42588  0.42588  0.76470  Biso   1.000  C
  C282     1.0000 0.41375  0.41375  0.79630  Biso   1.000  C
  H1853    1.0000 0.42260  0.42260  0.81680  Biso   1.000  H
  C283     1.0000 0.38744  0.38744  0.79740  Biso   1.000  C
  C284     1.0000 0.37545  0.37545  0.76620  Biso   1.000  C
  H1854    1.0000 0.35850  0.35850  0.76590  Biso   1.000  H
  C285     1.0000 0.38780  0.38780  0.73560  Biso   1.000  C
  C286     1.0000 0.41306  0.41306  0.73430  Biso   1.000  C
  H1855    1.0000 0.42120  0.42120  0.71320  Biso   1.000  H
  C287     1.0000 0.37310  0.37310  0.70100  Biso   1.000  C
  C288     1.0000 0.37315  0.37315  0.83040  Biso   1.000  C
  H1856    1.0000 0.36090  0.36090  0.56062  Biso   1.000  H
  O192     1.0000 0.39910  0.39910  0.58700  Biso   1.000  O
  O193     1.0000 0.26310  0.03635  0.96365  Biso   1.000  O
  O194     1.0000 0.20550  0.03608  0.96392  Biso   1.000  O
  O195     1.0000 0.29515  0.15001  0.84999  Biso   1.000  O
  O196     1.0000 0.32516  0.11536  0.88464  Biso   1.000  O
  O197     1.0000 0.42880  0.12260  0.87740  Biso   1.000  O
  C289     1.0000 0.23380  0.04670  0.95330  Biso   1.000  C
  C290     1.0000 0.23530  0.07412  0.92588  Biso   1.000  C
  C291     1.0000 0.20370  0.08625  0.91375  Biso   1.000  C
  H1857    1.0000 0.18320  0.07740  0.92260  Biso   1.000  H
  C292     1.0000 0.20260  0.11256  0.88744  Biso   1.000  C
  C293     1.0000 0.23380  0.12455  0.87545  Biso   1.000  C
  H1858    1.0000 0.23410  0.14150  0.85850  Biso   1.000  H
  C294     1.0000 0.26440  0.11220  0.88780  Biso   1.000  C
  C295     1.0000 0.26570  0.08694  0.91306  Biso   1.000  C
  H1859    1.0000 0.28680  0.07880  0.92120  Biso   1.000  H
  C296     1.0000 0.29900  0.12690  0.87310  Biso   1.000  C
  C297     1.0000 0.16960  0.12685  0.87315  Biso   1.000  C
  H1860    1.0000 0.43938  0.13910  0.86090  Biso   1.000  H
  O198     1.0000 0.41300  0.10090  0.89910  Biso   1.000  O
  O199     1.0000 0.26310  0.53635  0.46365  Biso   1.000  O
  O200     1.0000 0.20550  0.53608  0.46392  Biso   1.000  O
  O201     1.0000 0.29515  0.65001  0.34999  Biso   1.000  O
  O202     1.0000 0.32516  0.61536  0.38464  Biso   1.000  O
  O203     1.0000 0.42880  0.62260  0.37740  Biso   1.000  O
  C298     1.0000 0.23380  0.54670  0.45330  Biso   1.000  C
  C299     1.0000 0.23530  0.57412  0.42588  Biso   1.000  C
  C300     1.0000 0.20370  0.58625  0.41375  Biso   1.000  C
  H1861    1.0000 0.18320  0.57740  0.42260  Biso   1.000  H
  C301     1.0000 0.20260  0.61256  0.38744  Biso   1.000  C
  C302     1.0000 0.23380  0.62455  0.37545  Biso   1.000  C
  H1862    1.0000 0.23410  0.64150  0.35850  Biso   1.000  H
  C303     1.0000 0.26440  0.61220  0.38780  Biso   1.000  C
  C304     1.0000 0.26570  0.58694  0.41306  Biso   1.000  C
  H1863    1.0000 0.28680  0.57880  0.42120  Biso   1.000  H
  C305     1.0000 0.29900  0.62690  0.37310  Biso   1.000  C
  C306     1.0000 0.16960  0.62685  0.37315  Biso   1.000  C
  H1864    1.0000 0.43938  0.63910  0.36090  Biso   1.000  H
  O204     1.0000 0.41300  0.60090  0.39910  Biso   1.000  O
  O205     1.0000 0.76310  0.03635  0.46365  Biso   1.000  O
  O206     1.0000 0.70550  0.03608  0.46392  Biso   1.000  O
  O207     1.0000 0.79515  0.15001  0.34999  Biso   1.000  O
  O208     1.0000 0.82516  0.11536  0.38464  Biso   1.000  O
  O209     1.0000 0.92880  0.12260  0.37740  Biso   1.000  O
  C307     1.0000 0.73380  0.04670  0.45330  Biso   1.000  C
  C308     1.0000 0.73530  0.07412  0.42588  Biso   1.000  C
  C309     1.0000 0.70370  0.08625  0.41375  Biso   1.000  C
  H1865    1.0000 0.68320  0.07740  0.42260  Biso   1.000  H
  C310     1.0000 0.70260  0.11256  0.38744  Biso   1.000  C
  C311     1.0000 0.73380  0.12455  0.37545  Biso   1.000  C
  H1866    1.0000 0.73410  0.14150  0.35850  Biso   1.000  H
  C312     1.0000 0.76440  0.11220  0.38780  Biso   1.000  C
  C313     1.0000 0.76570  0.08694  0.41306  Biso   1.000  C
  H1867    1.0000 0.78680  0.07880  0.42120  Biso   1.000  H
  C314     1.0000 0.79900  0.12690  0.37310  Biso   1.000  C
  C315     1.0000 0.66960  0.12685  0.37315  Biso   1.000  C
  H1868    1.0000 0.93938  0.13910  0.36090  Biso   1.000  H
  O210     1.0000 0.91300  0.10090  0.39910  Biso   1.000  O
  O211     1.0000 0.76310  0.53635  0.96365  Biso   1.000  O
  O212     1.0000 0.70550  0.53608  0.96392  Biso   1.000  O
  O213     1.0000 0.79515  0.65001  0.84999  Biso   1.000  O
  O214     1.0000 0.82516  0.61536  0.88464  Biso   1.000  O
  O215     1.0000 0.92880  0.62260  0.87740  Biso   1.000  O
  C316     1.0000 0.73380  0.54670  0.95330  Biso   1.000  C
  C317     1.0000 0.73530  0.57412  0.92588  Biso   1.000  C
  C318     1.0000 0.70370  0.58625  0.91375  Biso   1.000  C
  H1869    1.0000 0.68320  0.57740  0.92260  Biso   1.000  H
  C319     1.0000 0.70260  0.61256  0.88744  Biso   1.000  C
  C320     1.0000 0.73380  0.62455  0.87545  Biso   1.000  C
  H1870    1.0000 0.73410  0.64150  0.85850  Biso   1.000  H
  C321     1.0000 0.76440  0.61220  0.88780  Biso   1.000  C
  C322     1.0000 0.76570  0.58694  0.91306  Biso   1.000  C
  H1871    1.0000 0.78680  0.57880  0.92120  Biso   1.000  H
  C323     1.0000 0.79900  0.62690  0.87310  Biso   1.000  C
  C324     1.0000 0.66960  0.62685  0.87315  Biso   1.000  C
  H1872    1.0000 0.93938  0.63910  0.86090  Biso   1.000  H
  O216     1.0000 0.91300  0.60090  0.89910  Biso   1.000  O
  O217     1.0000 0.73690  0.03635  0.03635  Biso   1.000  O
  O218     1.0000 0.79450  0.03608  0.03608  Biso   1.000  O
  O219     1.0000 0.70485  0.15001  0.15001  Biso   1.000  O
  O220     1.0000 0.67484  0.11536  0.11536  Biso   1.000  O
  O221     1.0000 0.57120  0.12260  0.12260  Biso   1.000  O
  C325     1.0000 0.76620  0.04670  0.04670  Biso   1.000  C
  C326     1.0000 0.76470  0.07412  0.07412  Biso   1.000  C
  C327     1.0000 0.79630  0.08625  0.08625  Biso   1.000  C
  H1873    1.0000 0.81680  0.07740  0.07740  Biso   1.000  H
  C328     1.0000 0.79740  0.11256  0.11256  Biso   1.000  C
  C329     1.0000 0.76620  0.12455  0.12455  Biso   1.000  C
  H1874    1.0000 0.76590  0.14150  0.14150  Biso   1.000  H
  C330     1.0000 0.73560  0.11220  0.11220  Biso   1.000  C
  C331     1.0000 0.73430  0.08694  0.08694  Biso   1.000  C
  H1875    1.0000 0.71320  0.07880  0.07880  Biso   1.000  H
  C332     1.0000 0.70100  0.12690  0.12690  Biso   1.000  C
  C333     1.0000 0.83040  0.12685  0.12685  Biso   1.000  C
  H1876    1.0000 0.56062  0.13910  0.13910  Biso   1.000  H
  O222     1.0000 0.58700  0.10090  0.10090  Biso   1.000  O
  O223     1.0000 0.73690  0.53635  0.53635  Biso   1.000  O
  O224     1.0000 0.79450  0.53608  0.53608  Biso   1.000  O
  O225     1.0000 0.70485  0.65001  0.65001  Biso   1.000  O
  O226     1.0000 0.67484  0.61536  0.61536  Biso   1.000  O
  O227     1.0000 0.57120  0.62260  0.62260  Biso   1.000  O
  C334     1.0000 0.76620  0.54670  0.54670  Biso   1.000  C
  C335     1.0000 0.76470  0.57412  0.57412  Biso   1.000  C
  C336     1.0000 0.79630  0.58625  0.58625  Biso   1.000  C
  H1877    1.0000 0.81680  0.57740  0.57740  Biso   1.000  H
  C337     1.0000 0.79740  0.61256  0.61256  Biso   1.000  C
  C338     1.0000 0.76620  0.62455  0.62455  Biso   1.000  C
  H1878    1.0000 0.76590  0.64150  0.64150  Biso   1.000  H
  C339     1.0000 0.73560  0.61220  0.61220  Biso   1.000  C
  C340     1.0000 0.73430  0.58694  0.58694  Biso   1.000  C
  H1879    1.0000 0.71320  0.57880  0.57880  Biso   1.000  H
  C341     1.0000 0.70100  0.62690  0.62690  Biso   1.000  C
  C342     1.0000 0.83040  0.62685  0.62685  Biso   1.000  C
  H1880    1.0000 0.56062  0.63910  0.63910  Biso   1.000  H
  O228     1.0000 0.58700  0.60090  0.60090  Biso   1.000  O
  O229     1.0000 0.23690  0.03635  0.53635  Biso   1.000  O
  O230     1.0000 0.29450  0.03608  0.53608  Biso   1.000  O
  O231     1.0000 0.20485  0.15001  0.65001  Biso   1.000  O
  O232     1.0000 0.17484  0.11536  0.61536  Biso   1.000  O
  O233     1.0000 0.07120  0.12260  0.62260  Biso   1.000  O
  C343     1.0000 0.26620  0.04670  0.54670  Biso   1.000  C
  C344     1.0000 0.26470  0.07412  0.57412  Biso   1.000  C
  C345     1.0000 0.29630  0.08625  0.58625  Biso   1.000  C
  H1881    1.0000 0.31680  0.07740  0.57740  Biso   1.000  H
  C346     1.0000 0.29740  0.11256  0.61256  Biso   1.000  C
  C347     1.0000 0.26620  0.12455  0.62455  Biso   1.000  C
  H1882    1.0000 0.26590  0.14150  0.64150  Biso   1.000  H
  C348     1.0000 0.23560  0.11220  0.61220  Biso   1.000  C
  C349     1.0000 0.23430  0.08694  0.58694  Biso   1.000  C
  H1883    1.0000 0.21320  0.07880  0.57880  Biso   1.000  H
  C350     1.0000 0.20100  0.12690  0.62690  Biso   1.000  C
  C351     1.0000 0.33040  0.12685  0.62685  Biso   1.000  C
  H1884    1.0000 0.06062  0.13910  0.63910  Biso   1.000  H
  O234     1.0000 0.08700  0.10090  0.60090  Biso   1.000  O
  O235     1.0000 0.23690  0.53635  0.03635  Biso   1.000  O
  O236     1.0000 0.29450  0.53608  0.03608  Biso   1.000  O
  O237     1.0000 0.20485  0.65001  0.15001  Biso   1.000  O
  O238     1.0000 0.17484  0.61536  0.11536  Biso   1.000  O
  O239     1.0000 0.07120  0.62260  0.12260  Biso   1.000  O
  C352     1.0000 0.26620  0.54670  0.04670  Biso   1.000  C
  C353     1.0000 0.26470  0.57412  0.07412  Biso   1.000  C
  C354     1.0000 0.29630  0.58625  0.08625  Biso   1.000  C
  H1885    1.0000 0.31680  0.57740  0.07740  Biso   1.000  H
  C355     1.0000 0.29740  0.61256  0.11256  Biso   1.000  C
  C356     1.0000 0.26620  0.62455  0.12455  Biso   1.000  C
  H1886    1.0000 0.26590  0.64150  0.14150  Biso   1.000  H
  C357     1.0000 0.23560  0.61220  0.11220  Biso   1.000  C
  C358     1.0000 0.23430  0.58694  0.08694  Biso   1.000  C
  H1887    1.0000 0.21320  0.57880  0.07880  Biso   1.000  H
  C359     1.0000 0.20100  0.62690  0.12690  Biso   1.000  C
  C360     1.0000 0.33040  0.62685  0.12685  Biso   1.000  C
  H1888    1.0000 0.06062  0.63910  0.13910  Biso   1.000  H
  O240     1.0000 0.08700  0.60090  0.10090  Biso   1.000  O
  O241     1.0000 0.26310  0.96365  0.03635  Biso   1.000  O
  O242     1.0000 0.20550  0.96392  0.03608  Biso   1.000  O
  O243     1.0000 0.29515  0.84999  0.15001  Biso   1.000  O
  O244     1.0000 0.32516  0.88464  0.11536  Biso   1.000  O
  O245     1.0000 0.42880  0.87740  0.12260  Biso   1.000  O
  C361     1.0000 0.23380  0.95330  0.04670  Biso   1.000  C
  C362     1.0000 0.23530  0.92588  0.07412  Biso   1.000  C
  C363     1.0000 0.20370  0.91375  0.08625  Biso   1.000  C
  H1889    1.0000 0.18320  0.92260  0.07740  Biso   1.000  H
  C364     1.0000 0.20260  0.88744  0.11256  Biso   1.000  C
  C365     1.0000 0.23380  0.87545  0.12455  Biso   1.000  C
  H1890    1.0000 0.23410  0.85850  0.14150  Biso   1.000  H
  C366     1.0000 0.26440  0.88780  0.11220  Biso   1.000  C
  C367     1.0000 0.26570  0.91306  0.08694  Biso   1.000  C
  H1891    1.0000 0.28680  0.92120  0.07880  Biso   1.000  H
  C368     1.0000 0.29900  0.87310  0.12690  Biso   1.000  C
  C369     1.0000 0.16960  0.87315  0.12685  Biso   1.000  C
  H1892    1.0000 0.43938  0.86090  0.13910  Biso   1.000  H
  O246     1.0000 0.41300  0.89910  0.10090  Biso   1.000  O
  O247     1.0000 0.26310  0.46365  0.53635  Biso   1.000  O
  O248     1.0000 0.20550  0.46392  0.53608  Biso   1.000  O
  O249     1.0000 0.29515  0.34999  0.65001  Biso   1.000  O
  O250     1.0000 0.32516  0.38464  0.61536  Biso   1.000  O
  O251     1.0000 0.42880  0.37740  0.62260  Biso   1.000  O
  C370     1.0000 0.23380  0.45330  0.54670  Biso   1.000  C
  C371     1.0000 0.23530  0.42588  0.57412  Biso   1.000  C
  C372     1.0000 0.20370  0.41375  0.58625  Biso   1.000  C
  H1893    1.0000 0.18320  0.42260  0.57740  Biso   1.000  H
  C373     1.0000 0.20260  0.38744  0.61256  Biso   1.000  C
  C374     1.0000 0.23380  0.37545  0.62455  Biso   1.000  C
  H1894    1.0000 0.23410  0.35850  0.64150  Biso   1.000  H
  C375     1.0000 0.26440  0.38780  0.61220  Biso   1.000  C
  C376     1.0000 0.26570  0.41306  0.58694  Biso   1.000  C
  H1895    1.0000 0.28680  0.42120  0.57880  Biso   1.000  H
  C377     1.0000 0.29900  0.37310  0.62690  Biso   1.000  C
  C378     1.0000 0.16960  0.37315  0.62685  Biso   1.000  C
  H1896    1.0000 0.43938  0.36090  0.63910  Biso   1.000  H
  O252     1.0000 0.41300  0.39910  0.60090  Biso   1.000  O
  O253     1.0000 0.76310  0.96365  0.53635  Biso   1.000  O
  O254     1.0000 0.70550  0.96392  0.53608  Biso   1.000  O
  O255     1.0000 0.79515  0.84999  0.65001  Biso   1.000  O
  O256     1.0000 0.82516  0.88464  0.61536  Biso   1.000  O
  O257     1.0000 0.92880  0.87740  0.62260  Biso   1.000  O
  C379     1.0000 0.73380  0.95330  0.54670  Biso   1.000  C
  C380     1.0000 0.73530  0.92588  0.57412  Biso   1.000  C
  C381     1.0000 0.70370  0.91375  0.58625  Biso   1.000  C
  H1897    1.0000 0.68320  0.92260  0.57740  Biso   1.000  H
  C382     1.0000 0.70260  0.88744  0.61256  Biso   1.000  C
  C383     1.0000 0.73380  0.87545  0.62455  Biso   1.000  C
  H1898    1.0000 0.73410  0.85850  0.64150  Biso   1.000  H
  C384     1.0000 0.76440  0.88780  0.61220  Biso   1.000  C
  C385     1.0000 0.76570  0.91306  0.58694  Biso   1.000  C
  H1899    1.0000 0.78680  0.92120  0.57880  Biso   1.000  H
  C386     1.0000 0.79900  0.87310  0.62690  Biso   1.000  C
  C387     1.0000 0.66960  0.87315  0.62685  Biso   1.000  C
  H1900    1.0000 0.93938  0.86090  0.63910  Biso   1.000  H
  O258     1.0000 0.91300  0.89910  0.60090  Biso   1.000  O
  O259     1.0000 0.76310  0.46365  0.03635  Biso   1.000  O
  O260     1.0000 0.70550  0.46392  0.03608  Biso   1.000  O
  O261     1.0000 0.79515  0.34999  0.15001  Biso   1.000  O
  O262     1.0000 0.82516  0.38464  0.11536  Biso   1.000  O
  O263     1.0000 0.92880  0.37740  0.12260  Biso   1.000  O
  C388     1.0000 0.73380  0.45330  0.04670  Biso   1.000  C
  C389     1.0000 0.73530  0.42588  0.07412  Biso   1.000  C
  C390     1.0000 0.70370  0.41375  0.08625  Biso   1.000  C
  H1901    1.0000 0.68320  0.42260  0.07740  Biso   1.000  H
  C391     1.0000 0.70260  0.38744  0.11256  Biso   1.000  C
  C392     1.0000 0.73380  0.37545  0.12455  Biso   1.000  C
  H1902    1.0000 0.73410  0.35850  0.14150  Biso   1.000  H
  C393     1.0000 0.76440  0.38780  0.11220  Biso   1.000  C
  C394     1.0000 0.76570  0.41306  0.08694  Biso   1.000  C
  H1903    1.0000 0.78680  0.42120  0.07880  Biso   1.000  H
  C395     1.0000 0.79900  0.37310  0.12690  Biso   1.000  C
  C396     1.0000 0.66960  0.37315  0.12685  Biso   1.000  C
  H1904    1.0000 0.93938  0.36090  0.13910  Biso   1.000  H
  O264     1.0000 0.91300  0.39910  0.10090  Biso   1.000  O
  O265     1.0000 0.73690  0.96365  0.96365  Biso   1.000  O
  O266     1.0000 0.79450  0.96392  0.96392  Biso   1.000  O
  O267     1.0000 0.70485  0.84999  0.84999  Biso   1.000  O
  O268     1.0000 0.67484  0.88464  0.88464  Biso   1.000  O
  O269     1.0000 0.57120  0.87740  0.87740  Biso   1.000  O
  C397     1.0000 0.76620  0.95330  0.95330  Biso   1.000  C
  C398     1.0000 0.76470  0.92588  0.92588  Biso   1.000  C
  C399     1.0000 0.79630  0.91375  0.91375  Biso   1.000  C
  H1905    1.0000 0.81680  0.92260  0.92260  Biso   1.000  H
  C400     1.0000 0.79740  0.88744  0.88744  Biso   1.000  C
  C401     1.0000 0.76620  0.87545  0.87545  Biso   1.000  C
  H1906    1.0000 0.76590  0.85850  0.85850  Biso   1.000  H
  C402     1.0000 0.73560  0.88780  0.88780  Biso   1.000  C
  C403     1.0000 0.73430  0.91306  0.91306  Biso   1.000  C
  H1907    1.0000 0.71320  0.92120  0.92120  Biso   1.000  H
  C404     1.0000 0.70100  0.87310  0.87310  Biso   1.000  C
  C405     1.0000 0.83040  0.87315  0.87315  Biso   1.000  C
  H1908    1.0000 0.56062  0.86090  0.86090  Biso   1.000  H
  O270     1.0000 0.58700  0.89910  0.89910  Biso   1.000  O
  O271     1.0000 0.73690  0.46365  0.46365  Biso   1.000  O
  O272     1.0000 0.79450  0.46392  0.46392  Biso   1.000  O
  O273     1.0000 0.70485  0.34999  0.34999  Biso   1.000  O
  O274     1.0000 0.67484  0.38464  0.38464  Biso   1.000  O
  O275     1.0000 0.57120  0.37740  0.37740  Biso   1.000  O
  C406     1.0000 0.76620  0.45330  0.45330  Biso   1.000  C
  C407     1.0000 0.76470  0.42588  0.42588  Biso   1.000  C
  C408     1.0000 0.79630  0.41375  0.41375  Biso   1.000  C
  H1909    1.0000 0.81680  0.42260  0.42260  Biso   1.000  H
  C409     1.0000 0.79740  0.38744  0.38744  Biso   1.000  C
  C410     1.0000 0.76620  0.37545  0.37545  Biso   1.000  C
  H1910    1.0000 0.76590  0.35850  0.35850  Biso   1.000  H
  C411     1.0000 0.73560  0.38780  0.38780  Biso   1.000  C
  C412     1.0000 0.73430  0.41306  0.41306  Biso   1.000  C
  H1911    1.0000 0.71320  0.42120  0.42120  Biso   1.000  H
  C413     1.0000 0.70100  0.37310  0.37310  Biso   1.000  C
  C414     1.0000 0.83040  0.37315  0.37315  Biso   1.000  C
  H1912    1.0000 0.56062  0.36090  0.36090  Biso   1.000  H
  O276     1.0000 0.58700  0.39910  0.39910  Biso   1.000  O
  O277     1.0000 0.23690  0.96365  0.46365  Biso   1.000  O
  O278     1.0000 0.29450  0.96392  0.46392  Biso   1.000  O
  O279     1.0000 0.20485  0.84999  0.34999  Biso   1.000  O
  O280     1.0000 0.17484  0.88464  0.38464  Biso   1.000  O
  O281     1.0000 0.07120  0.87740  0.37740  Biso   1.000  O
  C415     1.0000 0.26620  0.95330  0.45330  Biso   1.000  C
  C416     1.0000 0.26470  0.92588  0.42588  Biso   1.000  C
  C417     1.0000 0.29630  0.91375  0.41375  Biso   1.000  C
  H1913    1.0000 0.31680  0.92260  0.42260  Biso   1.000  H
  C418     1.0000 0.29740  0.88744  0.38744  Biso   1.000  C
  C419     1.0000 0.26620  0.87545  0.37545  Biso   1.000  C
  H1914    1.0000 0.26590  0.85850  0.35850  Biso   1.000  H
  C420     1.0000 0.23560  0.88780  0.38780  Biso   1.000  C
  C421     1.0000 0.23430  0.91306  0.41306  Biso   1.000  C
  H1915    1.0000 0.21320  0.92120  0.42120  Biso   1.000  H
  C422     1.0000 0.20100  0.87310  0.37310  Biso   1.000  C
  C423     1.0000 0.33040  0.87315  0.37315  Biso   1.000  C
  H1916    1.0000 0.06062  0.86090  0.36090  Biso   1.000  H
  O282     1.0000 0.08700  0.89910  0.39910  Biso   1.000  O
  O283     1.0000 0.23690  0.46365  0.96365  Biso   1.000  O
  O284     1.0000 0.29450  0.46392  0.96392  Biso   1.000  O
  O285     1.0000 0.20485  0.34999  0.84999  Biso   1.000  O
  O286     1.0000 0.17484  0.38464  0.88464  Biso   1.000  O
  O287     1.0000 0.07120  0.37740  0.87740  Biso   1.000  O
  C424     1.0000 0.26620  0.45330  0.95330  Biso   1.000  C
  C425     1.0000 0.26470  0.42588  0.92588  Biso   1.000  C
  C426     1.0000 0.29630  0.41375  0.91375  Biso   1.000  C
  H1917    1.0000 0.31680  0.42260  0.92260  Biso   1.000  H
  C427     1.0000 0.29740  0.38744  0.88744  Biso   1.000  C
  C428     1.0000 0.26620  0.37545  0.87545  Biso   1.000  C
  H1918    1.0000 0.26590  0.35850  0.85850  Biso   1.000  H
  C429     1.0000 0.23560  0.38780  0.88780  Biso   1.000  C
  C430     1.0000 0.23430  0.41306  0.91306  Biso   1.000  C
  H1919    1.0000 0.21320  0.42120  0.92120  Biso   1.000  H
  C431     1.0000 0.20100  0.37310  0.87310  Biso   1.000  C
  C432     1.0000 0.33040  0.37315  0.87315  Biso   1.000  C
  H1920    1.0000 0.06062  0.36090  0.86090  Biso   1.000  H
  O288     1.0000 0.08700  0.39910  0.89910  Biso   1.000  O
  O289     1.0000 0.26310  0.96365  0.96365  Biso   1.000  O
  O290     1.0000 0.20550  0.96392  0.96392  Biso   1.000  O
  O291     1.0000 0.29515  0.84999  0.84999  Biso   1.000  O
  O292     1.0000 0.32516  0.88464  0.88464  Biso   1.000  O
  O293     1.0000 0.42880  0.87740  0.87740  Biso   1.000  O
  C433     1.0000 0.23380  0.95330  0.95330  Biso   1.000  C
  C434     1.0000 0.23530  0.92588  0.92588  Biso   1.000  C
  C435     1.0000 0.20370  0.91375  0.91375  Biso   1.000  C
  H1921    1.0000 0.18320  0.92260  0.92260  Biso   1.000  H
  C436     1.0000 0.20260  0.88744  0.88744  Biso   1.000  C
  C437     1.0000 0.23380  0.87545  0.87545  Biso   1.000  C
  H1922    1.0000 0.23410  0.85850  0.85850  Biso   1.000  H
  C438     1.0000 0.26440  0.88780  0.88780  Biso   1.000  C
  C439     1.0000 0.26570  0.91306  0.91306  Biso   1.000  C
  H1923    1.0000 0.28680  0.92120  0.92120  Biso   1.000  H
  C440     1.0000 0.29900  0.87310  0.87310  Biso   1.000  C
  C441     1.0000 0.16960  0.87315  0.87315  Biso   1.000  C
  H1924    1.0000 0.43938  0.86090  0.86090  Biso   1.000  H
  O294     1.0000 0.41300  0.89910  0.89910  Biso   1.000  O
  O295     1.0000 0.26310  0.46365  0.46365  Biso   1.000  O
  O296     1.0000 0.20550  0.46392  0.46392  Biso   1.000  O
  O297     1.0000 0.29515  0.34999  0.34999  Biso   1.000  O
  O298     1.0000 0.32516  0.38464  0.38464  Biso   1.000  O
  O299     1.0000 0.42880  0.37740  0.37740  Biso   1.000  O
  C442     1.0000 0.23380  0.45330  0.45330  Biso   1.000  C
  C443     1.0000 0.23530  0.42588  0.42588  Biso   1.000  C
  C444     1.0000 0.20370  0.41375  0.41375  Biso   1.000  C
  H1925    1.0000 0.18320  0.42260  0.42260  Biso   1.000  H
  C445     1.0000 0.20260  0.38744  0.38744  Biso   1.000  C
  C446     1.0000 0.23380  0.37545  0.37545  Biso   1.000  C
  H1926    1.0000 0.23410  0.35850  0.35850  Biso   1.000  H
  C447     1.0000 0.26440  0.38780  0.38780  Biso   1.000  C
  C448     1.0000 0.26570  0.41306  0.41306  Biso   1.000  C
  H1927    1.0000 0.28680  0.42120  0.42120  Biso   1.000  H
  C449     1.0000 0.29900  0.37310  0.37310  Biso   1.000  C
  C450     1.0000 0.16960  0.37315  0.37315  Biso   1.000  C
  H1928    1.0000 0.43938  0.36090  0.36090  Biso   1.000  H
  O300     1.0000 0.41300  0.39910  0.39910  Biso   1.000  O
  O301     1.0000 0.76310  0.96365  0.46365  Biso   1.000  O
  O302     1.0000 0.70550  0.96392  0.46392  Biso   1.000  O
  O303     1.0000 0.79515  0.84999  0.34999  Biso   1.000  O
  O304     1.0000 0.82516  0.88464  0.38464  Biso   1.000  O
  O305     1.0000 0.92880  0.87740  0.37740  Biso   1.000  O
  C451     1.0000 0.73380  0.95330  0.45330  Biso   1.000  C
  C452     1.0000 0.73530  0.92588  0.42588  Biso   1.000  C
  C453     1.0000 0.70370  0.91375  0.41375  Biso   1.000  C
  H1929    1.0000 0.68320  0.92260  0.42260  Biso   1.000  H
  C454     1.0000 0.70260  0.88744  0.38744  Biso   1.000  C
  C455     1.0000 0.73380  0.87545  0.37545  Biso   1.000  C
  H1930    1.0000 0.73410  0.85850  0.35850  Biso   1.000  H
  C456     1.0000 0.76440  0.88780  0.38780  Biso   1.000  C
  C457     1.0000 0.76570  0.91306  0.41306  Biso   1.000  C
  H1931    1.0000 0.78680  0.92120  0.42120  Biso   1.000  H
  C458     1.0000 0.79900  0.87310  0.37310  Biso   1.000  C
  C459     1.0000 0.66960  0.87315  0.37315  Biso   1.000  C
  H1932    1.0000 0.93938  0.86090  0.36090  Biso   1.000  H
  O306     1.0000 0.91300  0.89910  0.39910  Biso   1.000  O
  O307     1.0000 0.76310  0.46365  0.96365  Biso   1.000  O
  O308     1.0000 0.70550  0.46392  0.96392  Biso   1.000  O
  O309     1.0000 0.79515  0.34999  0.84999  Biso   1.000  O
  O310     1.0000 0.82516  0.38464  0.88464  Biso   1.000  O
  O311     1.0000 0.92880  0.37740  0.87740  Biso   1.000  O
  C460     1.0000 0.73380  0.45330  0.95330  Biso   1.000  C
  C461     1.0000 0.73530  0.42588  0.92588  Biso   1.000  C
  C462     1.0000 0.70370  0.41375  0.91375  Biso   1.000  C
  H1933    1.0000 0.68320  0.42260  0.92260  Biso   1.000  H
  C463     1.0000 0.70260  0.38744  0.88744  Biso   1.000  C
  C464     1.0000 0.73380  0.37545  0.87545  Biso   1.000  C
  H1934    1.0000 0.73410  0.35850  0.85850  Biso   1.000  H
  C465     1.0000 0.76440  0.38780  0.88780  Biso   1.000  C
  C466     1.0000 0.76570  0.41306  0.91306  Biso   1.000  C
  H1935    1.0000 0.78680  0.42120  0.92120  Biso   1.000  H
  C467     1.0000 0.79900  0.37310  0.87310  Biso   1.000  C
  C468     1.0000 0.66960  0.37315  0.87315  Biso   1.000  C
  H1936    1.0000 0.93938  0.36090  0.86090  Biso   1.000  H
  O312     1.0000 0.91300  0.39910  0.89910  Biso   1.000  O
  O313     1.0000 0.73690  0.03635  0.96365  Biso   1.000  O
  O314     1.0000 0.79450  0.03608  0.96392  Biso   1.000  O
  O315     1.0000 0.70485  0.15001  0.84999  Biso   1.000  O
  O316     1.0000 0.67484  0.11536  0.88464  Biso   1.000  O
  O317     1.0000 0.57120  0.12260  0.87740  Biso   1.000  O
  C469     1.0000 0.76620  0.04670  0.95330  Biso   1.000  C
  C470     1.0000 0.76470  0.07412  0.92588  Biso   1.000  C
  C471     1.0000 0.79630  0.08625  0.91375  Biso   1.000  C
  H1937    1.0000 0.81680  0.07740  0.92260  Biso   1.000  H
  C472     1.0000 0.79740  0.11256  0.88744  Biso   1.000  C
  C473     1.0000 0.76620  0.12455  0.87545  Biso   1.000  C
  H1938    1.0000 0.76590  0.14150  0.85850  Biso   1.000  H
  C474     1.0000 0.73560  0.11220  0.88780  Biso   1.000  C
  C475     1.0000 0.73430  0.08694  0.91306  Biso   1.000  C
  H1939    1.0000 0.71320  0.07880  0.92120  Biso   1.000  H
  C476     1.0000 0.70100  0.12690  0.87310  Biso   1.000  C
  C477     1.0000 0.83040  0.12685  0.87315  Biso   1.000  C
  H1940    1.0000 0.56062  0.13910  0.86090  Biso   1.000  H
  O318     1.0000 0.58700  0.10090  0.89910  Biso   1.000  O
  O319     1.0000 0.73690  0.53635  0.46365  Biso   1.000  O
  O320     1.0000 0.79450  0.53608  0.46392  Biso   1.000  O
  O321     1.0000 0.70485  0.65001  0.34999  Biso   1.000  O
  O322     1.0000 0.67484  0.61536  0.38464  Biso   1.000  O
  O323     1.0000 0.57120  0.62260  0.37740  Biso   1.000  O
  C478     1.0000 0.76620  0.54670  0.45330  Biso   1.000  C
  C479     1.0000 0.76470  0.57412  0.42588  Biso   1.000  C
  C480     1.0000 0.79630  0.58625  0.41375  Biso   1.000  C
  H1941    1.0000 0.81680  0.57740  0.42260  Biso   1.000  H
  C481     1.0000 0.79740  0.61256  0.38744  Biso   1.000  C
  C482     1.0000 0.76620  0.62455  0.37545  Biso   1.000  C
  H1942    1.0000 0.76590  0.64150  0.35850  Biso   1.000  H
  C483     1.0000 0.73560  0.61220  0.38780  Biso   1.000  C
  C484     1.0000 0.73430  0.58694  0.41306  Biso   1.000  C
  H1943    1.0000 0.71320  0.57880  0.42120  Biso   1.000  H
  C485     1.0000 0.70100  0.62690  0.37310  Biso   1.000  C
  C486     1.0000 0.83040  0.62685  0.37315  Biso   1.000  C
  H1944    1.0000 0.56062  0.63910  0.36090  Biso   1.000  H
  O324     1.0000 0.58700  0.60090  0.39910  Biso   1.000  O
  O325     1.0000 0.23690  0.03635  0.46365  Biso   1.000  O
  O326     1.0000 0.29450  0.03608  0.46392  Biso   1.000  O
  O327     1.0000 0.20485  0.15001  0.34999  Biso   1.000  O
  O328     1.0000 0.17484  0.11536  0.38464  Biso   1.000  O
  O329     1.0000 0.07120  0.12260  0.37740  Biso   1.000  O
  C487     1.0000 0.26620  0.04670  0.45330  Biso   1.000  C
  C488     1.0000 0.26470  0.07412  0.42588  Biso   1.000  C
  C489     1.0000 0.29630  0.08625  0.41375  Biso   1.000  C
  H1945    1.0000 0.31680  0.07740  0.42260  Biso   1.000  H
  C490     1.0000 0.29740  0.11256  0.38744  Biso   1.000  C
  C491     1.0000 0.26620  0.12455  0.37545  Biso   1.000  C
  H1946    1.0000 0.26590  0.14150  0.35850  Biso   1.000  H
  C492     1.0000 0.23560  0.11220  0.38780  Biso   1.000  C
  C493     1.0000 0.23430  0.08694  0.41306  Biso   1.000  C
  H1947    1.0000 0.21320  0.07880  0.42120  Biso   1.000  H
  C494     1.0000 0.20100  0.12690  0.37310  Biso   1.000  C
  C495     1.0000 0.33040  0.12685  0.37315  Biso   1.000  C
  H1948    1.0000 0.06062  0.13910  0.36090  Biso   1.000  H
  O330     1.0000 0.08700  0.10090  0.39910  Biso   1.000  O
  O331     1.0000 0.23690  0.53635  0.96365  Biso   1.000  O
  O332     1.0000 0.29450  0.53608  0.96392  Biso   1.000  O
  O333     1.0000 0.20485  0.65001  0.84999  Biso   1.000  O
  O334     1.0000 0.17484  0.61536  0.88464  Biso   1.000  O
  O335     1.0000 0.07120  0.62260  0.87740  Biso   1.000  O
  C496     1.0000 0.26620  0.54670  0.95330  Biso   1.000  C
  C497     1.0000 0.26470  0.57412  0.92588  Biso   1.000  C
  C498     1.0000 0.29630  0.58625  0.91375  Biso   1.000  C
  H1949    1.0000 0.31680  0.57740  0.92260  Biso   1.000  H
  C499     1.0000 0.29740  0.61256  0.88744  Biso   1.000  C
  C500     1.0000 0.26620  0.62455  0.87545  Biso   1.000  C
  H1950    1.0000 0.26590  0.64150  0.85850  Biso   1.000  H
  C501     1.0000 0.23560  0.61220  0.88780  Biso   1.000  C
  C502     1.0000 0.23430  0.58694  0.91306  Biso   1.000  C
  H1951    1.0000 0.21320  0.57880  0.92120  Biso   1.000  H
  C503     1.0000 0.20100  0.62690  0.87310  Biso   1.000  C
  C504     1.0000 0.33040  0.62685  0.87315  Biso   1.000  C
  H1952    1.0000 0.06062  0.63910  0.86090  Biso   1.000  H
  O336     1.0000 0.08700  0.60090  0.89910  Biso   1.000  O
  O337     1.0000 0.26310  0.03635  0.03635  Biso   1.000  O
  O338     1.0000 0.20550  0.03608  0.03608  Biso   1.000  O
  O339     1.0000 0.29515  0.15001  0.15001  Biso   1.000  O
  O340     1.0000 0.32516  0.11536  0.11536  Biso   1.000  O
  O341     1.0000 0.42880  0.12260  0.12260  Biso   1.000  O
  C505     1.0000 0.23380  0.04670  0.04670  Biso   1.000  C
  C506     1.0000 0.23530  0.07412  0.07412  Biso   1.000  C
  C507     1.0000 0.20370  0.08625  0.08625  Biso   1.000  C
  H1953    1.0000 0.18320  0.07740  0.07740  Biso   1.000  H
  C508     1.0000 0.20260  0.11256  0.11256  Biso   1.000  C
  C509     1.0000 0.23380  0.12455  0.12455  Biso   1.000  C
  H1954    1.0000 0.23410  0.14150  0.14150  Biso   1.000  H
  C510     1.0000 0.26440  0.11220  0.11220  Biso   1.000  C
  C511     1.0000 0.26570  0.08694  0.08694  Biso   1.000  C
  H1955    1.0000 0.28680  0.07880  0.07880  Biso   1.000  H
  C512     1.0000 0.29900  0.12690  0.12690  Biso   1.000  C
  C513     1.0000 0.16960  0.12685  0.12685  Biso   1.000  C
  H1956    1.0000 0.43938  0.13910  0.13910  Biso   1.000  H
  O342     1.0000 0.41300  0.10090  0.10090  Biso   1.000  O
  O343     1.0000 0.26310  0.53635  0.53635  Biso   1.000  O
  O344     1.0000 0.20550  0.53608  0.53608  Biso   1.000  O
  O345     1.0000 0.29515  0.65001  0.65001  Biso   1.000  O
  O346     1.0000 0.32516  0.61536  0.61536  Biso   1.000  O
  O347     1.0000 0.42880  0.62260  0.62260  Biso   1.000  O
  C514     1.0000 0.23380  0.54670  0.54670  Biso   1.000  C
  C515     1.0000 0.23530  0.57412  0.57412  Biso   1.000  C
  C516     1.0000 0.20370  0.58625  0.58625  Biso   1.000  C
  H1957    1.0000 0.18320  0.57740  0.57740  Biso   1.000  H
  C517     1.0000 0.20260  0.61256  0.61256  Biso   1.000  C
  C518     1.0000 0.23380  0.62455  0.62455  Biso   1.000  C
  H1958    1.0000 0.23410  0.64150  0.64150  Biso   1.000  H
  C519     1.0000 0.26440  0.61220  0.61220  Biso   1.000  C
  C520     1.0000 0.26570  0.58694  0.58694  Biso   1.000  C
  H1959    1.0000 0.28680  0.57880  0.57880  Biso   1.000  H
  C521     1.0000 0.29900  0.62690  0.62690  Biso   1.000  C
  C522     1.0000 0.16960  0.62685  0.62685  Biso   1.000  C
  H1960    1.0000 0.43938  0.63910  0.63910  Biso   1.000  H
  O348     1.0000 0.41300  0.60090  0.60090  Biso   1.000  O
  O349     1.0000 0.76310  0.03635  0.53635  Biso   1.000  O
  O350     1.0000 0.70550  0.03608  0.53608  Biso   1.000  O
  O351     1.0000 0.79515  0.15001  0.65001  Biso   1.000  O
  O352     1.0000 0.82516  0.11536  0.61536  Biso   1.000  O
  O353     1.0000 0.92880  0.12260  0.62260  Biso   1.000  O
  C523     1.0000 0.73380  0.04670  0.54670  Biso   1.000  C
  C524     1.0000 0.73530  0.07412  0.57412  Biso   1.000  C
  C525     1.0000 0.70370  0.08625  0.58625  Biso   1.000  C
  H1961    1.0000 0.68320  0.07740  0.57740  Biso   1.000  H
  C526     1.0000 0.70260  0.11256  0.61256  Biso   1.000  C
  C527     1.0000 0.73380  0.12455  0.62455  Biso   1.000  C
  H1962    1.0000 0.73410  0.14150  0.64150  Biso   1.000  H
  C528     1.0000 0.76440  0.11220  0.61220  Biso   1.000  C
  C529     1.0000 0.76570  0.08694  0.58694  Biso   1.000  C
  H1963    1.0000 0.78680  0.07880  0.57880  Biso   1.000  H
  C530     1.0000 0.79900  0.12690  0.62690  Biso   1.000  C
  C531     1.0000 0.66960  0.12685  0.62685  Biso   1.000  C
  H1964    1.0000 0.93938  0.13910  0.63910  Biso   1.000  H
  O354     1.0000 0.91300  0.10090  0.60090  Biso   1.000  O
  O355     1.0000 0.76310  0.53635  0.03635  Biso   1.000  O
  O356     1.0000 0.70550  0.53608  0.03608  Biso   1.000  O
  O357     1.0000 0.79515  0.65001  0.15001  Biso   1.000  O
  O358     1.0000 0.82516  0.61536  0.11536  Biso   1.000  O
  O359     1.0000 0.92880  0.62260  0.12260  Biso   1.000  O
  C532     1.0000 0.73380  0.54670  0.04670  Biso   1.000  C
  C533     1.0000 0.73530  0.57412  0.07412  Biso   1.000  C
  C534     1.0000 0.70370  0.58625  0.08625  Biso   1.000  C
  H1965    1.0000 0.68320  0.57740  0.07740  Biso   1.000  H
  C535     1.0000 0.70260  0.61256  0.11256  Biso   1.000  C
  C536     1.0000 0.73380  0.62455  0.12455  Biso   1.000  C
  H1966    1.0000 0.73410  0.64150  0.14150  Biso   1.000  H
  C537     1.0000 0.76440  0.61220  0.11220  Biso   1.000  C
  C538     1.0000 0.76570  0.58694  0.08694  Biso   1.000  C
  H1967    1.0000 0.78680  0.57880  0.07880  Biso   1.000  H
  C539     1.0000 0.79900  0.62690  0.12690  Biso   1.000  C
  C540     1.0000 0.66960  0.62685  0.12685  Biso   1.000  C
  H1968    1.0000 0.93938  0.63910  0.13910  Biso   1.000  H
  O360     1.0000 0.91300  0.60090  0.10090  Biso   1.000  O
  O361     1.0000 0.73690  0.96365  0.03635  Biso   1.000  O
  O362     1.0000 0.79450  0.96392  0.03608  Biso   1.000  O
  O363     1.0000 0.70485  0.84999  0.15001  Biso   1.000  O
  O364     1.0000 0.67484  0.88464  0.11536  Biso   1.000  O
  O365     1.0000 0.57120  0.87740  0.12260  Biso   1.000  O
  C541     1.0000 0.76620  0.95330  0.04670  Biso   1.000  C
  C542     1.0000 0.76470  0.92588  0.07412  Biso   1.000  C
  C543     1.0000 0.79630  0.91375  0.08625  Biso   1.000  C
  H1969    1.0000 0.81680  0.92260  0.07740  Biso   1.000  H
  C544     1.0000 0.79740  0.88744  0.11256  Biso   1.000  C
  C545     1.0000 0.76620  0.87545  0.12455  Biso   1.000  C
  H1970    1.0000 0.76590  0.85850  0.14150  Biso   1.000  H
  C546     1.0000 0.73560  0.88780  0.11220  Biso   1.000  C
  C547     1.0000 0.73430  0.91306  0.08694  Biso   1.000  C
  H1971    1.0000 0.71320  0.92120  0.07880  Biso   1.000  H
  C548     1.0000 0.70100  0.87310  0.12690  Biso   1.000  C
  C549     1.0000 0.83040  0.87315  0.12685  Biso   1.000  C
  H1972    1.0000 0.56062  0.86090  0.13910  Biso   1.000  H
  O366     1.0000 0.58700  0.89910  0.10090  Biso   1.000  O
  O367     1.0000 0.73690  0.46365  0.53635  Biso   1.000  O
  O368     1.0000 0.79450  0.46392  0.53608  Biso   1.000  O
  O369     1.0000 0.70485  0.34999  0.65001  Biso   1.000  O
  O370     1.0000 0.67484  0.38464  0.61536  Biso   1.000  O
  O371     1.0000 0.57120  0.37740  0.62260  Biso   1.000  O
  C550     1.0000 0.76620  0.45330  0.54670  Biso   1.000  C
  C551     1.0000 0.76470  0.42588  0.57412  Biso   1.000  C
  C552     1.0000 0.79630  0.41375  0.58625  Biso   1.000  C
  H1973    1.0000 0.81680  0.42260  0.57740  Biso   1.000  H
  C553     1.0000 0.79740  0.38744  0.61256  Biso   1.000  C
  C554     1.0000 0.76620  0.37545  0.62455  Biso   1.000  C
  H1974    1.0000 0.76590  0.35850  0.64150  Biso   1.000  H
  C555     1.0000 0.73560  0.38780  0.61220  Biso   1.000  C
  C556     1.0000 0.73430  0.41306  0.58694  Biso   1.000  C
  H1975    1.0000 0.71320  0.42120  0.57880  Biso   1.000  H
  C557     1.0000 0.70100  0.37310  0.62690  Biso   1.000  C
  C558     1.0000 0.83040  0.37315  0.62685  Biso   1.000  C
  H1976    1.0000 0.56062  0.36090  0.63910  Biso   1.000  H
  O372     1.0000 0.58700  0.39910  0.60090  Biso   1.000  O
  O373     1.0000 0.23690  0.96365  0.53635  Biso   1.000  O
  O374     1.0000 0.29450  0.96392  0.53608  Biso   1.000  O
  O375     1.0000 0.20485  0.84999  0.65001  Biso   1.000  O
  O376     1.0000 0.17484  0.88464  0.61536  Biso   1.000  O
  O377     1.0000 0.07120  0.87740  0.62260  Biso   1.000  O
  C559     1.0000 0.26620  0.95330  0.54670  Biso   1.000  C
  C560     1.0000 0.26470  0.92588  0.57412  Biso   1.000  C
  C561     1.0000 0.29630  0.91375  0.58625  Biso   1.000  C
  H1977    1.0000 0.31680  0.92260  0.57740  Biso   1.000  H
  C562     1.0000 0.29740  0.88744  0.61256  Biso   1.000  C
  C563     1.0000 0.26620  0.87545  0.62455  Biso   1.000  C
  H1978    1.0000 0.26590  0.85850  0.64150  Biso   1.000  H
  C564     1.0000 0.23560  0.88780  0.61220  Biso   1.000  C
  C565     1.0000 0.23430  0.91306  0.58694  Biso   1.000  C
  H1979    1.0000 0.21320  0.92120  0.57880  Biso   1.000  H
  C566     1.0000 0.20100  0.87310  0.62690  Biso   1.000  C
  C567     1.0000 0.33040  0.87315  0.62685  Biso   1.000  C
  H1980    1.0000 0.06062  0.86090  0.63910  Biso   1.000  H
  O378     1.0000 0.08700  0.89910  0.60090  Biso   1.000  O
  O379     1.0000 0.23690  0.46365  0.03635  Biso   1.000  O
  O380     1.0000 0.29450  0.46392  0.03608  Biso   1.000  O
  O381     1.0000 0.20485  0.34999  0.15001  Biso   1.000  O
  O382     1.0000 0.17484  0.38464  0.11536  Biso   1.000  O
  O383     1.0000 0.07120  0.37740  0.12260  Biso   1.000  O
  C568     1.0000 0.26620  0.45330  0.04670  Biso   1.000  C
  C569     1.0000 0.26470  0.42588  0.07412  Biso   1.000  C
  C570     1.0000 0.29630  0.41375  0.08625  Biso   1.000  C
  H1981    1.0000 0.31680  0.42260  0.07740  Biso   1.000  H
  C571     1.0000 0.29740  0.38744  0.11256  Biso   1.000  C
  C572     1.0000 0.26620  0.37545  0.12455  Biso   1.000  C
  H1982    1.0000 0.26590  0.35850  0.14150  Biso   1.000  H
  C573     1.0000 0.23560  0.38780  0.11220  Biso   1.000  C
  C574     1.0000 0.23430  0.41306  0.08694  Biso   1.000  C
  H1983    1.0000 0.21320  0.42120  0.07880  Biso   1.000  H
  C575     1.0000 0.20100  0.37310  0.12690  Biso   1.000  C
  C576     1.0000 0.33040  0.37315  0.12685  Biso   1.000  C
  H1984    1.0000 0.06062  0.36090  0.13910  Biso   1.000  H
  O384     1.0000 0.08700  0.39910  0.10090  Biso   1.000  O
  O385     1.0000 0.96365  0.03635  0.73690  Biso   1.000  O
  O386     1.0000 0.96392  0.03608  0.79450  Biso   1.000  O
  O387     1.0000 0.84999  0.15001  0.70485  Biso   1.000  O
  O388     1.0000 0.88464  0.11536  0.67484  Biso   1.000  O
  O389     1.0000 0.87740  0.12260  0.57120  Biso   1.000  O
  C577     1.0000 0.95330  0.04670  0.76620  Biso   1.000  C
  C578     1.0000 0.92588  0.07412  0.76470  Biso   1.000  C
  C579     1.0000 0.91375  0.08625  0.79630  Biso   1.000  C
  H1985    1.0000 0.92260  0.07740  0.81680  Biso   1.000  H
  C580     1.0000 0.88744  0.11256  0.79740  Biso   1.000  C
  C581     1.0000 0.87545  0.12455  0.76620  Biso   1.000  C
  H1986    1.0000 0.85850  0.14150  0.76590  Biso   1.000  H
  C582     1.0000 0.88780  0.11220  0.73560  Biso   1.000  C
  C583     1.0000 0.91306  0.08694  0.73430  Biso   1.000  C
  H1987    1.0000 0.92120  0.07880  0.71320  Biso   1.000  H
  C584     1.0000 0.87310  0.12690  0.70100  Biso   1.000  C
  C585     1.0000 0.87315  0.12685  0.83040  Biso   1.000  C
  H1988    1.0000 0.86090  0.13910  0.56062  Biso   1.000  H
  O390     1.0000 0.89910  0.10090  0.58700  Biso   1.000  O
  O391     1.0000 0.96365  0.53635  0.23690  Biso   1.000  O
  O392     1.0000 0.96392  0.53608  0.29450  Biso   1.000  O
  O393     1.0000 0.84999  0.65001  0.20485  Biso   1.000  O
  O394     1.0000 0.88464  0.61536  0.17484  Biso   1.000  O
  O395     1.0000 0.87740  0.62260  0.07120  Biso   1.000  O
  C586     1.0000 0.95330  0.54670  0.26620  Biso   1.000  C
  C587     1.0000 0.92588  0.57412  0.26470  Biso   1.000  C
  C588     1.0000 0.91375  0.58625  0.29630  Biso   1.000  C
  H1989    1.0000 0.92260  0.57740  0.31680  Biso   1.000  H
  C589     1.0000 0.88744  0.61256  0.29740  Biso   1.000  C
  C590     1.0000 0.87545  0.62455  0.26620  Biso   1.000  C
  H1990    1.0000 0.85850  0.64150  0.26590  Biso   1.000  H
  C591     1.0000 0.88780  0.61220  0.23560  Biso   1.000  C
  C592     1.0000 0.91306  0.58694  0.23430  Biso   1.000  C
  H1991    1.0000 0.92120  0.57880  0.21320  Biso   1.000  H
  C593     1.0000 0.87310  0.62690  0.20100  Biso   1.000  C
  C594     1.0000 0.87315  0.62685  0.33040  Biso   1.000  C
  H1992    1.0000 0.86090  0.63910  0.06062  Biso   1.000  H
  O396     1.0000 0.89910  0.60090  0.08700  Biso   1.000  O
  O397     1.0000 0.46365  0.03635  0.23690  Biso   1.000  O
  O398     1.0000 0.46392  0.03608  0.29450  Biso   1.000  O
  O399     1.0000 0.34999  0.15001  0.20485  Biso   1.000  O
  O400     1.0000 0.38464  0.11536  0.17484  Biso   1.000  O
  O401     1.0000 0.37740  0.12260  0.07120  Biso   1.000  O
  C595     1.0000 0.45330  0.04670  0.26620  Biso   1.000  C
  C596     1.0000 0.42588  0.07412  0.26470  Biso   1.000  C
  C597     1.0000 0.41375  0.08625  0.29630  Biso   1.000  C
  H1993    1.0000 0.42260  0.07740  0.31680  Biso   1.000  H
  C598     1.0000 0.38744  0.11256  0.29740  Biso   1.000  C
  C599     1.0000 0.37545  0.12455  0.26620  Biso   1.000  C
  H1994    1.0000 0.35850  0.14150  0.26590  Biso   1.000  H
  C600     1.0000 0.38780  0.11220  0.23560  Biso   1.000  C
  C601     1.0000 0.41306  0.08694  0.23430  Biso   1.000  C
  H1995    1.0000 0.42120  0.07880  0.21320  Biso   1.000  H
  C602     1.0000 0.37310  0.12690  0.20100  Biso   1.000  C
  C603     1.0000 0.37315  0.12685  0.33040  Biso   1.000  C
  H1996    1.0000 0.36090  0.13910  0.06062  Biso   1.000  H
  O402     1.0000 0.39910  0.10090  0.08700  Biso   1.000  O
  O403     1.0000 0.46365  0.53635  0.73690  Biso   1.000  O
  O404     1.0000 0.46392  0.53608  0.79450  Biso   1.000  O
  O405     1.0000 0.34999  0.65001  0.70485  Biso   1.000  O
  O406     1.0000 0.38464  0.61536  0.67484  Biso   1.000  O
  O407     1.0000 0.37740  0.62260  0.57120  Biso   1.000  O
  C604     1.0000 0.45330  0.54670  0.76620  Biso   1.000  C
  C605     1.0000 0.42588  0.57412  0.76470  Biso   1.000  C
  C606     1.0000 0.41375  0.58625  0.79630  Biso   1.000  C
  H1997    1.0000 0.42260  0.57740  0.81680  Biso   1.000  H
  C607     1.0000 0.38744  0.61256  0.79740  Biso   1.000  C
  C608     1.0000 0.37545  0.62455  0.76620  Biso   1.000  C
  H1998    1.0000 0.35850  0.64150  0.76590  Biso   1.000  H
  C609     1.0000 0.38780  0.61220  0.73560  Biso   1.000  C
  C610     1.0000 0.41306  0.58694  0.73430  Biso   1.000  C
  H1999    1.0000 0.42120  0.57880  0.71320  Biso   1.000  H
  C611     1.0000 0.37310  0.62690  0.70100  Biso   1.000  C
  C612     1.0000 0.37315  0.62685  0.83040  Biso   1.000  C
  H2000    1.0000 0.36090  0.63910  0.56062  Biso   1.000  H
  O408     1.0000 0.39910  0.60090  0.58700  Biso   1.000  O
  O409     1.0000 0.03635  0.03635  0.26310  Biso   1.000  O
  O410     1.0000 0.03608  0.03608  0.20550  Biso   1.000  O
  O411     1.0000 0.15001  0.15001  0.29515  Biso   1.000  O
  O412     1.0000 0.11536  0.11536  0.32516  Biso   1.000  O
  O413     1.0000 0.12260  0.12260  0.42880  Biso   1.000  O
  C613     1.0000 0.04670  0.04670  0.23380  Biso   1.000  C
  C614     1.0000 0.07412  0.07412  0.23530  Biso   1.000  C
  C615     1.0000 0.08625  0.08625  0.20370  Biso   1.000  C
  H2001    1.0000 0.07740  0.07740  0.18320  Biso   1.000  H
  C616     1.0000 0.11256  0.11256  0.20260  Biso   1.000  C
  C617     1.0000 0.12455  0.12455  0.23380  Biso   1.000  C
  H2002    1.0000 0.14150  0.14150  0.23410  Biso   1.000  H
  C618     1.0000 0.11220  0.11220  0.26440  Biso   1.000  C
  C619     1.0000 0.08694  0.08694  0.26570  Biso   1.000  C
  H2003    1.0000 0.07880  0.07880  0.28680  Biso   1.000  H
  C620     1.0000 0.12690  0.12690  0.29900  Biso   1.000  C
  C621     1.0000 0.12685  0.12685  0.16960  Biso   1.000  C
  H2004    1.0000 0.13910  0.13910  0.43938  Biso   1.000  H
  O414     1.0000 0.10090  0.10090  0.41300  Biso   1.000  O
  O415     1.0000 0.03635  0.53635  0.76310  Biso   1.000  O
  O416     1.0000 0.03608  0.53608  0.70550  Biso   1.000  O
  O417     1.0000 0.15001  0.65001  0.79515  Biso   1.000  O
  O418     1.0000 0.11536  0.61536  0.82516  Biso   1.000  O
  O419     1.0000 0.12260  0.62260  0.92880  Biso   1.000  O
  C622     1.0000 0.04670  0.54670  0.73380  Biso   1.000  C
  C623     1.0000 0.07412  0.57412  0.73530  Biso   1.000  C
  C624     1.0000 0.08625  0.58625  0.70370  Biso   1.000  C
  H2005    1.0000 0.07740  0.57740  0.68320  Biso   1.000  H
  C625     1.0000 0.11256  0.61256  0.70260  Biso   1.000  C
  C626     1.0000 0.12455  0.62455  0.73380  Biso   1.000  C
  H2006    1.0000 0.14150  0.64150  0.73410  Biso   1.000  H
  C627     1.0000 0.11220  0.61220  0.76440  Biso   1.000  C
  C628     1.0000 0.08694  0.58694  0.76570  Biso   1.000  C
  H2007    1.0000 0.07880  0.57880  0.78680  Biso   1.000  H
  C629     1.0000 0.12690  0.62690  0.79900  Biso   1.000  C
  C630     1.0000 0.12685  0.62685  0.66960  Biso   1.000  C
  H2008    1.0000 0.13910  0.63910  0.93938  Biso   1.000  H
  O420     1.0000 0.10090  0.60090  0.91300  Biso   1.000  O
  O421     1.0000 0.53635  0.03635  0.76310  Biso   1.000  O
  O422     1.0000 0.53608  0.03608  0.70550  Biso   1.000  O
  O423     1.0000 0.65001  0.15001  0.79515  Biso   1.000  O
  O424     1.0000 0.61536  0.11536  0.82516  Biso   1.000  O
  O425     1.0000 0.62260  0.12260  0.92880  Biso   1.000  O
  C631     1.0000 0.54670  0.04670  0.73380  Biso   1.000  C
  C632     1.0000 0.57412  0.07412  0.73530  Biso   1.000  C
  C633     1.0000 0.58625  0.08625  0.70370  Biso   1.000  C
  H2009    1.0000 0.57740  0.07740  0.68320  Biso   1.000  H
  C634     1.0000 0.61256  0.11256  0.70260  Biso   1.000  C
  C635     1.0000 0.62455  0.12455  0.73380  Biso   1.000  C
  H2010    1.0000 0.64150  0.14150  0.73410  Biso   1.000  H
  C636     1.0000 0.61220  0.11220  0.76440  Biso   1.000  C
  C637     1.0000 0.58694  0.08694  0.76570  Biso   1.000  C
  H2011    1.0000 0.57880  0.07880  0.78680  Biso   1.000  H
  C638     1.0000 0.62690  0.12690  0.79900  Biso   1.000  C
  C639     1.0000 0.62685  0.12685  0.66960  Biso   1.000  C
  H2012    1.0000 0.63910  0.13910  0.93938  Biso   1.000  H
  O426     1.0000 0.60090  0.10090  0.91300  Biso   1.000  O
  O427     1.0000 0.53635  0.53635  0.26310  Biso   1.000  O
  O428     1.0000 0.53608  0.53608  0.20550  Biso   1.000  O
  O429     1.0000 0.65001  0.65001  0.29515  Biso   1.000  O
  O430     1.0000 0.61536  0.61536  0.32516  Biso   1.000  O
  O431     1.0000 0.62260  0.62260  0.42880  Biso   1.000  O
  C640     1.0000 0.54670  0.54670  0.23380  Biso   1.000  C
  C641     1.0000 0.57412  0.57412  0.23530  Biso   1.000  C
  C642     1.0000 0.58625  0.58625  0.20370  Biso   1.000  C
  H2013    1.0000 0.57740  0.57740  0.18320  Biso   1.000  H
  C643     1.0000 0.61256  0.61256  0.20260  Biso   1.000  C
  C644     1.0000 0.62455  0.62455  0.23380  Biso   1.000  C
  H2014    1.0000 0.64150  0.64150  0.23410  Biso   1.000  H
  C645     1.0000 0.61220  0.61220  0.26440  Biso   1.000  C
  C646     1.0000 0.58694  0.58694  0.26570  Biso   1.000  C
  H2015    1.0000 0.57880  0.57880  0.28680  Biso   1.000  H
  C647     1.0000 0.62690  0.62690  0.29900  Biso   1.000  C
  C648     1.0000 0.62685  0.62685  0.16960  Biso   1.000  C
  H2016    1.0000 0.63910  0.63910  0.43938  Biso   1.000  H
  O432     1.0000 0.60090  0.60090  0.41300  Biso   1.000  O
  O433     1.0000 0.03635  0.96365  0.73690  Biso   1.000  O
  O434     1.0000 0.03608  0.96392  0.79450  Biso   1.000  O
  O435     1.0000 0.15001  0.84999  0.70485  Biso   1.000  O
  O436     1.0000 0.11536  0.88464  0.67484  Biso   1.000  O
  O437     1.0000 0.12260  0.87740  0.57120  Biso   1.000  O
  C649     1.0000 0.04670  0.95330  0.76620  Biso   1.000  C
  C650     1.0000 0.07412  0.92588  0.76470  Biso   1.000  C
  C651     1.0000 0.08625  0.91375  0.79630  Biso   1.000  C
  H2017    1.0000 0.07740  0.92260  0.81680  Biso   1.000  H
  C652     1.0000 0.11256  0.88744  0.79740  Biso   1.000  C
  C653     1.0000 0.12455  0.87545  0.76620  Biso   1.000  C
  H2018    1.0000 0.14150  0.85850  0.76590  Biso   1.000  H
  C654     1.0000 0.11220  0.88780  0.73560  Biso   1.000  C
  C655     1.0000 0.08694  0.91306  0.73430  Biso   1.000  C
  H2019    1.0000 0.07880  0.92120  0.71320  Biso   1.000  H
  C656     1.0000 0.12690  0.87310  0.70100  Biso   1.000  C
  C657     1.0000 0.12685  0.87315  0.83040  Biso   1.000  C
  H2020    1.0000 0.13910  0.86090  0.56062  Biso   1.000  H
  O438     1.0000 0.10090  0.89910  0.58700  Biso   1.000  O
  O439     1.0000 0.03635  0.46365  0.23690  Biso   1.000  O
  O440     1.0000 0.03608  0.46392  0.29450  Biso   1.000  O
  O441     1.0000 0.15001  0.34999  0.20485  Biso   1.000  O
  O442     1.0000 0.11536  0.38464  0.17484  Biso   1.000  O
  O443     1.0000 0.12260  0.37740  0.07120  Biso   1.000  O
  C658     1.0000 0.04670  0.45330  0.26620  Biso   1.000  C
  C659     1.0000 0.07412  0.42588  0.26470  Biso   1.000  C
  C660     1.0000 0.08625  0.41375  0.29630  Biso   1.000  C
  H2021    1.0000 0.07740  0.42260  0.31680  Biso   1.000  H
  C661     1.0000 0.11256  0.38744  0.29740  Biso   1.000  C
  C662     1.0000 0.12455  0.37545  0.26620  Biso   1.000  C
  H2022    1.0000 0.14150  0.35850  0.26590  Biso   1.000  H
  C663     1.0000 0.11220  0.38780  0.23560  Biso   1.000  C
  C664     1.0000 0.08694  0.41306  0.23430  Biso   1.000  C
  H2023    1.0000 0.07880  0.42120  0.21320  Biso   1.000  H
  C665     1.0000 0.12690  0.37310  0.20100  Biso   1.000  C
  C666     1.0000 0.12685  0.37315  0.33040  Biso   1.000  C
  H2024    1.0000 0.13910  0.36090  0.06062  Biso   1.000  H
  O444     1.0000 0.10090  0.39910  0.08700  Biso   1.000  O
  O445     1.0000 0.53635  0.96365  0.23690  Biso   1.000  O
  O446     1.0000 0.53608  0.96392  0.29450  Biso   1.000  O
  O447     1.0000 0.65001  0.84999  0.20485  Biso   1.000  O
  O448     1.0000 0.61536  0.88464  0.17484  Biso   1.000  O
  O449     1.0000 0.62260  0.87740  0.07120  Biso   1.000  O
  C667     1.0000 0.54670  0.95330  0.26620  Biso   1.000  C
  C668     1.0000 0.57412  0.92588  0.26470  Biso   1.000  C
  C669     1.0000 0.58625  0.91375  0.29630  Biso   1.000  C
  H2025    1.0000 0.57740  0.92260  0.31680  Biso   1.000  H
  C670     1.0000 0.61256  0.88744  0.29740  Biso   1.000  C
  C671     1.0000 0.62455  0.87545  0.26620  Biso   1.000  C
  H2026    1.0000 0.64150  0.85850  0.26590  Biso   1.000  H
  C672     1.0000 0.61220  0.88780  0.23560  Biso   1.000  C
  C673     1.0000 0.58694  0.91306  0.23430  Biso   1.000  C
  H2027    1.0000 0.57880  0.92120  0.21320  Biso   1.000  H
  C674     1.0000 0.62690  0.87310  0.20100  Biso   1.000  C
  C675     1.0000 0.62685  0.87315  0.33040  Biso   1.000  C
  H2028    1.0000 0.63910  0.86090  0.06062  Biso   1.000  H
  O450     1.0000 0.60090  0.89910  0.08700  Biso   1.000  O
  O451     1.0000 0.53635  0.46365  0.73690  Biso   1.000  O
  O452     1.0000 0.53608  0.46392  0.79450  Biso   1.000  O
  O453     1.0000 0.65001  0.34999  0.70485  Biso   1.000  O
  O454     1.0000 0.61536  0.38464  0.67484  Biso   1.000  O
  O455     1.0000 0.62260  0.37740  0.57120  Biso   1.000  O
  C676     1.0000 0.54670  0.45330  0.76620  Biso   1.000  C
  C677     1.0000 0.57412  0.42588  0.76470  Biso   1.000  C
  C678     1.0000 0.58625  0.41375  0.79630  Biso   1.000  C
  H2029    1.0000 0.57740  0.42260  0.81680  Biso   1.000  H
  C679     1.0000 0.61256  0.38744  0.79740  Biso   1.000  C
  C680     1.0000 0.62455  0.37545  0.76620  Biso   1.000  C
  H2030    1.0000 0.64150  0.35850  0.76590  Biso   1.000  H
  C681     1.0000 0.61220  0.38780  0.73560  Biso   1.000  C
  C682     1.0000 0.58694  0.41306  0.73430  Biso   1.000  C
  H2031    1.0000 0.57880  0.42120  0.71320  Biso   1.000  H
  C683     1.0000 0.62690  0.37310  0.70100  Biso   1.000  C
  C684     1.0000 0.62685  0.37315  0.83040  Biso   1.000  C
  H2032    1.0000 0.63910  0.36090  0.56062  Biso   1.000  H
  O456     1.0000 0.60090  0.39910  0.58700  Biso   1.000  O
  O457     1.0000 0.96365  0.96365  0.26310  Biso   1.000  O
  O458     1.0000 0.96392  0.96392  0.20550  Biso   1.000  O
  O459     1.0000 0.84999  0.84999  0.29515  Biso   1.000  O
  O460     1.0000 0.88464  0.88464  0.32516  Biso   1.000  O
  O461     1.0000 0.87740  0.87740  0.42880  Biso   1.000  O
  C685     1.0000 0.95330  0.95330  0.23380  Biso   1.000  C
  C686     1.0000 0.92588  0.92588  0.23530  Biso   1.000  C
  C687     1.0000 0.91375  0.91375  0.20370  Biso   1.000  C
  H2033    1.0000 0.92260  0.92260  0.18320  Biso   1.000  H
  C688     1.0000 0.88744  0.88744  0.20260  Biso   1.000  C
  C689     1.0000 0.87545  0.87545  0.23380  Biso   1.000  C
  H2034    1.0000 0.85850  0.85850  0.23410  Biso   1.000  H
  C690     1.0000 0.88780  0.88780  0.26440  Biso   1.000  C
  C691     1.0000 0.91306  0.91306  0.26570  Biso   1.000  C
  H2035    1.0000 0.92120  0.92120  0.28680  Biso   1.000  H
  C692     1.0000 0.87310  0.87310  0.29900  Biso   1.000  C
  C693     1.0000 0.87315  0.87315  0.16960  Biso   1.000  C
  H2036    1.0000 0.86090  0.86090  0.43938  Biso   1.000  H
  O462     1.0000 0.89910  0.89910  0.41300  Biso   1.000  O
  O463     1.0000 0.96365  0.46365  0.76310  Biso   1.000  O
  O464     1.0000 0.96392  0.46392  0.70550  Biso   1.000  O
  O465     1.0000 0.84999  0.34999  0.79515  Biso   1.000  O
  O466     1.0000 0.88464  0.38464  0.82516  Biso   1.000  O
  O467     1.0000 0.87740  0.37740  0.92880  Biso   1.000  O
  C694     1.0000 0.95330  0.45330  0.73380  Biso   1.000  C
  C695     1.0000 0.92588  0.42588  0.73530  Biso   1.000  C
  C696     1.0000 0.91375  0.41375  0.70370  Biso   1.000  C
  H2037    1.0000 0.92260  0.42260  0.68320  Biso   1.000  H
  C697     1.0000 0.88744  0.38744  0.70260  Biso   1.000  C
  C698     1.0000 0.87545  0.37545  0.73380  Biso   1.000  C
  H2038    1.0000 0.85850  0.35850  0.73410  Biso   1.000  H
  C699     1.0000 0.88780  0.38780  0.76440  Biso   1.000  C
  C700     1.0000 0.91306  0.41306  0.76570  Biso   1.000  C
  H2039    1.0000 0.92120  0.42120  0.78680  Biso   1.000  H
  C701     1.0000 0.87310  0.37310  0.79900  Biso   1.000  C
  C702     1.0000 0.87315  0.37315  0.66960  Biso   1.000  C
  H2040    1.0000 0.86090  0.36090  0.93938  Biso   1.000  H
  O468     1.0000 0.89910  0.39910  0.91300  Biso   1.000  O
  O469     1.0000 0.46365  0.96365  0.76310  Biso   1.000  O
  O470     1.0000 0.46392  0.96392  0.70550  Biso   1.000  O
  O471     1.0000 0.34999  0.84999  0.79515  Biso   1.000  O
  O472     1.0000 0.38464  0.88464  0.82516  Biso   1.000  O
  O473     1.0000 0.37740  0.87740  0.92880  Biso   1.000  O
  C703     1.0000 0.45330  0.95330  0.73380  Biso   1.000  C
  C704     1.0000 0.42588  0.92588  0.73530  Biso   1.000  C
  C705     1.0000 0.41375  0.91375  0.70370  Biso   1.000  C
  H2041    1.0000 0.42260  0.92260  0.68320  Biso   1.000  H
  C706     1.0000 0.38744  0.88744  0.70260  Biso   1.000  C
  C707     1.0000 0.37545  0.87545  0.73380  Biso   1.000  C
  H2042    1.0000 0.35850  0.85850  0.73410  Biso   1.000  H
  C708     1.0000 0.38780  0.88780  0.76440  Biso   1.000  C
  C709     1.0000 0.41306  0.91306  0.76570  Biso   1.000  C
  H2043    1.0000 0.42120  0.92120  0.78680  Biso   1.000  H
  C710     1.0000 0.37310  0.87310  0.79900  Biso   1.000  C
  C711     1.0000 0.37315  0.87315  0.66960  Biso   1.000  C
  H2044    1.0000 0.36090  0.86090  0.93938  Biso   1.000  H
  O474     1.0000 0.39910  0.89910  0.91300  Biso   1.000  O
  O475     1.0000 0.46365  0.46365  0.26310  Biso   1.000  O
  O476     1.0000 0.46392  0.46392  0.20550  Biso   1.000  O
  O477     1.0000 0.34999  0.34999  0.29515  Biso   1.000  O
  O478     1.0000 0.38464  0.38464  0.32516  Biso   1.000  O
  O479     1.0000 0.37740  0.37740  0.42880  Biso   1.000  O
  C712     1.0000 0.45330  0.45330  0.23380  Biso   1.000  C
  C713     1.0000 0.42588  0.42588  0.23530  Biso   1.000  C
  C714     1.0000 0.41375  0.41375  0.20370  Biso   1.000  C
  H2045    1.0000 0.42260  0.42260  0.18320  Biso   1.000  H
  C715     1.0000 0.38744  0.38744  0.20260  Biso   1.000  C
  C716     1.0000 0.37545  0.37545  0.23380  Biso   1.000  C
  H2046    1.0000 0.35850  0.35850  0.23410  Biso   1.000  H
  C717     1.0000 0.38780  0.38780  0.26440  Biso   1.000  C
  C718     1.0000 0.41306  0.41306  0.26570  Biso   1.000  C
  H2047    1.0000 0.42120  0.42120  0.28680  Biso   1.000  H
  C719     1.0000 0.37310  0.37310  0.29900  Biso   1.000  C
  C720     1.0000 0.37315  0.37315  0.16960  Biso   1.000  C
  H2048    1.0000 0.36090  0.36090  0.43938  Biso   1.000  H
  O480     1.0000 0.39910  0.39910  0.41300  Biso   1.000  O
  O481     1.0000 0.03635  0.26310  0.03635  Biso   1.000  O
  O482     1.0000 0.03608  0.20550  0.03608  Biso   1.000  O
  O483     1.0000 0.15001  0.29515  0.15001  Biso   1.000  O
  O484     1.0000 0.11536  0.32516  0.11536  Biso   1.000  O
  O485     1.0000 0.12260  0.42880  0.12260  Biso   1.000  O
  C721     1.0000 0.04670  0.23380  0.04670  Biso   1.000  C
  C722     1.0000 0.07412  0.23530  0.07412  Biso   1.000  C
  C723     1.0000 0.08625  0.20370  0.08625  Biso   1.000  C
  H2049    1.0000 0.07740  0.18320  0.07740  Biso   1.000  H
  C724     1.0000 0.11256  0.20260  0.11256  Biso   1.000  C
  C725     1.0000 0.12455  0.23380  0.12455  Biso   1.000  C
  H2050    1.0000 0.14150  0.23410  0.14150  Biso   1.000  H
  C726     1.0000 0.11220  0.26440  0.11220  Biso   1.000  C
  C727     1.0000 0.08694  0.26570  0.08694  Biso   1.000  C
  H2051    1.0000 0.07880  0.28680  0.07880  Biso   1.000  H
  C728     1.0000 0.12690  0.29900  0.12690  Biso   1.000  C
  C729     1.0000 0.12685  0.16960  0.12685  Biso   1.000  C
  H2052    1.0000 0.13910  0.43938  0.13910  Biso   1.000  H
  O486     1.0000 0.10090  0.41300  0.10090  Biso   1.000  O
  O487     1.0000 0.03635  0.76310  0.53635  Biso   1.000  O
  O488     1.0000 0.03608  0.70550  0.53608  Biso   1.000  O
  O489     1.0000 0.15001  0.79515  0.65001  Biso   1.000  O
  O490     1.0000 0.11536  0.82516  0.61536  Biso   1.000  O
  O491     1.0000 0.12260  0.92880  0.62260  Biso   1.000  O
  C730     1.0000 0.04670  0.73380  0.54670  Biso   1.000  C
  C731     1.0000 0.07412  0.73530  0.57412  Biso   1.000  C
  C732     1.0000 0.08625  0.70370  0.58625  Biso   1.000  C
  H2053    1.0000 0.07740  0.68320  0.57740  Biso   1.000  H
  C733     1.0000 0.11256  0.70260  0.61256  Biso   1.000  C
  C734     1.0000 0.12455  0.73380  0.62455  Biso   1.000  C
  H2054    1.0000 0.14150  0.73410  0.64150  Biso   1.000  H
  C735     1.0000 0.11220  0.76440  0.61220  Biso   1.000  C
  C736     1.0000 0.08694  0.76570  0.58694  Biso   1.000  C
  H2055    1.0000 0.07880  0.78680  0.57880  Biso   1.000  H
  C737     1.0000 0.12690  0.79900  0.62690  Biso   1.000  C
  C738     1.0000 0.12685  0.66960  0.62685  Biso   1.000  C
  H2056    1.0000 0.13910  0.93938  0.63910  Biso   1.000  H
  O492     1.0000 0.10090  0.91300  0.60090  Biso   1.000  O
  O493     1.0000 0.53635  0.26310  0.53635  Biso   1.000  O
  O494     1.0000 0.53608  0.20550  0.53608  Biso   1.000  O
  O495     1.0000 0.65001  0.29515  0.65001  Biso   1.000  O
  O496     1.0000 0.61536  0.32516  0.61536  Biso   1.000  O
  O497     1.0000 0.62260  0.42880  0.62260  Biso   1.000  O
  C739     1.0000 0.54670  0.23380  0.54670  Biso   1.000  C
  C740     1.0000 0.57412  0.23530  0.57412  Biso   1.000  C
  C741     1.0000 0.58625  0.20370  0.58625  Biso   1.000  C
  H2057    1.0000 0.57740  0.18320  0.57740  Biso   1.000  H
  C742     1.0000 0.61256  0.20260  0.61256  Biso   1.000  C
  C743     1.0000 0.62455  0.23380  0.62455  Biso   1.000  C
  H2058    1.0000 0.64150  0.23410  0.64150  Biso   1.000  H
  C744     1.0000 0.61220  0.26440  0.61220  Biso   1.000  C
  C745     1.0000 0.58694  0.26570  0.58694  Biso   1.000  C
  H2059    1.0000 0.57880  0.28680  0.57880  Biso   1.000  H
  C746     1.0000 0.62690  0.29900  0.62690  Biso   1.000  C
  C747     1.0000 0.62685  0.16960  0.62685  Biso   1.000  C
  H2060    1.0000 0.63910  0.43938  0.63910  Biso   1.000  H
  O498     1.0000 0.60090  0.41300  0.60090  Biso   1.000  O
  O499     1.0000 0.53635  0.76310  0.03635  Biso   1.000  O
  O500     1.0000 0.53608  0.70550  0.03608  Biso   1.000  O
  O501     1.0000 0.65001  0.79515  0.15001  Biso   1.000  O
  O502     1.0000 0.61536  0.82516  0.11536  Biso   1.000  O
  O503     1.0000 0.62260  0.92880  0.12260  Biso   1.000  O
  C748     1.0000 0.54670  0.73380  0.04670  Biso   1.000  C
  C749     1.0000 0.57412  0.73530  0.07412  Biso   1.000  C
  C750     1.0000 0.58625  0.70370  0.08625  Biso   1.000  C
  H2061    1.0000 0.57740  0.68320  0.07740  Biso   1.000  H
  C751     1.0000 0.61256  0.70260  0.11256  Biso   1.000  C
  C752     1.0000 0.62455  0.73380  0.12455  Biso   1.000  C
  H2062    1.0000 0.64150  0.73410  0.14150  Biso   1.000  H
  C753     1.0000 0.61220  0.76440  0.11220  Biso   1.000  C
  C754     1.0000 0.58694  0.76570  0.08694  Biso   1.000  C
  H2063    1.0000 0.57880  0.78680  0.07880  Biso   1.000  H
  C755     1.0000 0.62690  0.79900  0.12690  Biso   1.000  C
  C756     1.0000 0.62685  0.66960  0.12685  Biso   1.000  C
  H2064    1.0000 0.63910  0.93938  0.13910  Biso   1.000  H
  O504     1.0000 0.60090  0.91300  0.10090  Biso   1.000  O
  O505     1.0000 0.03635  0.73690  0.96365  Biso   1.000  O
  O506     1.0000 0.03608  0.79450  0.96392  Biso   1.000  O
  O507     1.0000 0.15001  0.70485  0.84999  Biso   1.000  O
  O508     1.0000 0.11536  0.67484  0.88464  Biso   1.000  O
  O509     1.0000 0.12260  0.57120  0.87740  Biso   1.000  O
  C757     1.0000 0.04670  0.76620  0.95330  Biso   1.000  C
  C758     1.0000 0.07412  0.76470  0.92588  Biso   1.000  C
  C759     1.0000 0.08625  0.79630  0.91375  Biso   1.000  C
  H2065    1.0000 0.07740  0.81680  0.92260  Biso   1.000  H
  C760     1.0000 0.11256  0.79740  0.88744  Biso   1.000  C
  C761     1.0000 0.12455  0.76620  0.87545  Biso   1.000  C
  H2066    1.0000 0.14150  0.76590  0.85850  Biso   1.000  H
  C762     1.0000 0.11220  0.73560  0.88780  Biso   1.000  C
  C763     1.0000 0.08694  0.73430  0.91306  Biso   1.000  C
  H2067    1.0000 0.07880  0.71320  0.92120  Biso   1.000  H
  C764     1.0000 0.12690  0.70100  0.87310  Biso   1.000  C
  C765     1.0000 0.12685  0.83040  0.87315  Biso   1.000  C
  H2068    1.0000 0.13910  0.56062  0.86090  Biso   1.000  H
  O510     1.0000 0.10090  0.58700  0.89910  Biso   1.000  O
  O511     1.0000 0.03635  0.23690  0.46365  Biso   1.000  O
  O512     1.0000 0.03608  0.29450  0.46392  Biso   1.000  O
  O513     1.0000 0.15001  0.20485  0.34999  Biso   1.000  O
  O514     1.0000 0.11536  0.17484  0.38464  Biso   1.000  O
  O515     1.0000 0.12260  0.07120  0.37740  Biso   1.000  O
  C766     1.0000 0.04670  0.26620  0.45330  Biso   1.000  C
  C767     1.0000 0.07412  0.26470  0.42588  Biso   1.000  C
  C768     1.0000 0.08625  0.29630  0.41375  Biso   1.000  C
  H2069    1.0000 0.07740  0.31680  0.42260  Biso   1.000  H
  C769     1.0000 0.11256  0.29740  0.38744  Biso   1.000  C
  C770     1.0000 0.12455  0.26620  0.37545  Biso   1.000  C
  H2070    1.0000 0.14150  0.26590  0.35850  Biso   1.000  H
  C771     1.0000 0.11220  0.23560  0.38780  Biso   1.000  C
  C772     1.0000 0.08694  0.23430  0.41306  Biso   1.000  C
  H2071    1.0000 0.07880  0.21320  0.42120  Biso   1.000  H
  C773     1.0000 0.12690  0.20100  0.37310  Biso   1.000  C
  C774     1.0000 0.12685  0.33040  0.37315  Biso   1.000  C
  H2072    1.0000 0.13910  0.06062  0.36090  Biso   1.000  H
  O516     1.0000 0.10090  0.08700  0.39910  Biso   1.000  O
  O517     1.0000 0.53635  0.73690  0.46365  Biso   1.000  O
  O518     1.0000 0.53608  0.79450  0.46392  Biso   1.000  O
  O519     1.0000 0.65001  0.70485  0.34999  Biso   1.000  O
  O520     1.0000 0.61536  0.67484  0.38464  Biso   1.000  O
  O521     1.0000 0.62260  0.57120  0.37740  Biso   1.000  O
  C775     1.0000 0.54670  0.76620  0.45330  Biso   1.000  C
  C776     1.0000 0.57412  0.76470  0.42588  Biso   1.000  C
  C777     1.0000 0.58625  0.79630  0.41375  Biso   1.000  C
  H2073    1.0000 0.57740  0.81680  0.42260  Biso   1.000  H
  C778     1.0000 0.61256  0.79740  0.38744  Biso   1.000  C
  C779     1.0000 0.62455  0.76620  0.37545  Biso   1.000  C
  H2074    1.0000 0.64150  0.76590  0.35850  Biso   1.000  H
  C780     1.0000 0.61220  0.73560  0.38780  Biso   1.000  C
  C781     1.0000 0.58694  0.73430  0.41306  Biso   1.000  C
  H2075    1.0000 0.57880  0.71320  0.42120  Biso   1.000  H
  C782     1.0000 0.62690  0.70100  0.37310  Biso   1.000  C
  C783     1.0000 0.62685  0.83040  0.37315  Biso   1.000  C
  H2076    1.0000 0.63910  0.56062  0.36090  Biso   1.000  H
  O522     1.0000 0.60090  0.58700  0.39910  Biso   1.000  O
  O523     1.0000 0.53635  0.23690  0.96365  Biso   1.000  O
  O524     1.0000 0.53608  0.29450  0.96392  Biso   1.000  O
  O525     1.0000 0.65001  0.20485  0.84999  Biso   1.000  O
  O526     1.0000 0.61536  0.17484  0.88464  Biso   1.000  O
  O527     1.0000 0.62260  0.07120  0.87740  Biso   1.000  O
  C784     1.0000 0.54670  0.26620  0.95330  Biso   1.000  C
  C785     1.0000 0.57412  0.26470  0.92588  Biso   1.000  C
  C786     1.0000 0.58625  0.29630  0.91375  Biso   1.000  C
  H2077    1.0000 0.57740  0.31680  0.92260  Biso   1.000  H
  C787     1.0000 0.61256  0.29740  0.88744  Biso   1.000  C
  C788     1.0000 0.62455  0.26620  0.87545  Biso   1.000  C
  H2078    1.0000 0.64150  0.26590  0.85850  Biso   1.000  H
  C789     1.0000 0.61220  0.23560  0.88780  Biso   1.000  C
  C790     1.0000 0.58694  0.23430  0.91306  Biso   1.000  C
  H2079    1.0000 0.57880  0.21320  0.92120  Biso   1.000  H
  C791     1.0000 0.62690  0.20100  0.87310  Biso   1.000  C
  C792     1.0000 0.62685  0.33040  0.87315  Biso   1.000  C
  H2080    1.0000 0.63910  0.06062  0.86090  Biso   1.000  H
  O528     1.0000 0.60090  0.08700  0.89910  Biso   1.000  O
  O529     1.0000 0.96365  0.26310  0.96365  Biso   1.000  O
  O530     1.0000 0.96392  0.20550  0.96392  Biso   1.000  O
  O531     1.0000 0.84999  0.29515  0.84999  Biso   1.000  O
  O532     1.0000 0.88464  0.32516  0.88464  Biso   1.000  O
  O533     1.0000 0.87740  0.42880  0.87740  Biso   1.000  O
  C793     1.0000 0.95330  0.23380  0.95330  Biso   1.000  C
  C794     1.0000 0.92588  0.23530  0.92588  Biso   1.000  C
  C795     1.0000 0.91375  0.20370  0.91375  Biso   1.000  C
  H2081    1.0000 0.92260  0.18320  0.92260  Biso   1.000  H
  C796     1.0000 0.88744  0.20260  0.88744  Biso   1.000  C
  C797     1.0000 0.87545  0.23380  0.87545  Biso   1.000  C
  H2082    1.0000 0.85850  0.23410  0.85850  Biso   1.000  H
  C798     1.0000 0.88780  0.26440  0.88780  Biso   1.000  C
  C799     1.0000 0.91306  0.26570  0.91306  Biso   1.000  C
  H2083    1.0000 0.92120  0.28680  0.92120  Biso   1.000  H
  C800     1.0000 0.87310  0.29900  0.87310  Biso   1.000  C
  C801     1.0000 0.87315  0.16960  0.87315  Biso   1.000  C
  H2084    1.0000 0.86090  0.43938  0.86090  Biso   1.000  H
  O534     1.0000 0.89910  0.41300  0.89910  Biso   1.000  O
  O535     1.0000 0.96365  0.76310  0.46365  Biso   1.000  O
  O536     1.0000 0.96392  0.70550  0.46392  Biso   1.000  O
  O537     1.0000 0.84999  0.79515  0.34999  Biso   1.000  O
  O538     1.0000 0.88464  0.82516  0.38464  Biso   1.000  O
  O539     1.0000 0.87740  0.92880  0.37740  Biso   1.000  O
  C802     1.0000 0.95330  0.73380  0.45330  Biso   1.000  C
  C803     1.0000 0.92588  0.73530  0.42588  Biso   1.000  C
  C804     1.0000 0.91375  0.70370  0.41375  Biso   1.000  C
  H2085    1.0000 0.92260  0.68320  0.42260  Biso   1.000  H
  C805     1.0000 0.88744  0.70260  0.38744  Biso   1.000  C
  C806     1.0000 0.87545  0.73380  0.37545  Biso   1.000  C
  H2086    1.0000 0.85850  0.73410  0.35850  Biso   1.000  H
  C807     1.0000 0.88780  0.76440  0.38780  Biso   1.000  C
  C808     1.0000 0.91306  0.76570  0.41306  Biso   1.000  C
  H2087    1.0000 0.92120  0.78680  0.42120  Biso   1.000  H
  C809     1.0000 0.87310  0.79900  0.37310  Biso   1.000  C
  C810     1.0000 0.87315  0.66960  0.37315  Biso   1.000  C
  H2088    1.0000 0.86090  0.93938  0.36090  Biso   1.000  H
  O540     1.0000 0.89910  0.91300  0.39910  Biso   1.000  O
  O541     1.0000 0.46365  0.26310  0.46365  Biso   1.000  O
  O542     1.0000 0.46392  0.20550  0.46392  Biso   1.000  O
  O543     1.0000 0.34999  0.29515  0.34999  Biso   1.000  O
  O544     1.0000 0.38464  0.32516  0.38464  Biso   1.000  O
  O545     1.0000 0.37740  0.42880  0.37740  Biso   1.000  O
  C811     1.0000 0.45330  0.23380  0.45330  Biso   1.000  C
  C812     1.0000 0.42588  0.23530  0.42588  Biso   1.000  C
  C813     1.0000 0.41375  0.20370  0.41375  Biso   1.000  C
  H2089    1.0000 0.42260  0.18320  0.42260  Biso   1.000  H
  C814     1.0000 0.38744  0.20260  0.38744  Biso   1.000  C
  C815     1.0000 0.37545  0.23380  0.37545  Biso   1.000  C
  H2090    1.0000 0.35850  0.23410  0.35850  Biso   1.000  H
  C816     1.0000 0.38780  0.26440  0.38780  Biso   1.000  C
  C817     1.0000 0.41306  0.26570  0.41306  Biso   1.000  C
  H2091    1.0000 0.42120  0.28680  0.42120  Biso   1.000  H
  C818     1.0000 0.37310  0.29900  0.37310  Biso   1.000  C
  C819     1.0000 0.37315  0.16960  0.37315  Biso   1.000  C
  H2092    1.0000 0.36090  0.43938  0.36090  Biso   1.000  H
  O546     1.0000 0.39910  0.41300  0.39910  Biso   1.000  O
  O547     1.0000 0.46365  0.76310  0.96365  Biso   1.000  O
  O548     1.0000 0.46392  0.70550  0.96392  Biso   1.000  O
  O549     1.0000 0.34999  0.79515  0.84999  Biso   1.000  O
  O550     1.0000 0.38464  0.82516  0.88464  Biso   1.000  O
  O551     1.0000 0.37740  0.92880  0.87740  Biso   1.000  O
  C820     1.0000 0.45330  0.73380  0.95330  Biso   1.000  C
  C821     1.0000 0.42588  0.73530  0.92588  Biso   1.000  C
  C822     1.0000 0.41375  0.70370  0.91375  Biso   1.000  C
  H2093    1.0000 0.42260  0.68320  0.92260  Biso   1.000  H
  C823     1.0000 0.38744  0.70260  0.88744  Biso   1.000  C
  C824     1.0000 0.37545  0.73380  0.87545  Biso   1.000  C
  H2094    1.0000 0.35850  0.73410  0.85850  Biso   1.000  H
  C825     1.0000 0.38780  0.76440  0.88780  Biso   1.000  C
  C826     1.0000 0.41306  0.76570  0.91306  Biso   1.000  C
  H2095    1.0000 0.42120  0.78680  0.92120  Biso   1.000  H
  C827     1.0000 0.37310  0.79900  0.87310  Biso   1.000  C
  C828     1.0000 0.37315  0.66960  0.87315  Biso   1.000  C
  H2096    1.0000 0.36090  0.93938  0.86090  Biso   1.000  H
  O552     1.0000 0.39910  0.91300  0.89910  Biso   1.000  O
  O553     1.0000 0.96365  0.73690  0.03635  Biso   1.000  O
  O554     1.0000 0.96392  0.79450  0.03608  Biso   1.000  O
  O555     1.0000 0.84999  0.70485  0.15001  Biso   1.000  O
  O556     1.0000 0.88464  0.67484  0.11536  Biso   1.000  O
  O557     1.0000 0.87740  0.57120  0.12260  Biso   1.000  O
  C829     1.0000 0.95330  0.76620  0.04670  Biso   1.000  C
  C830     1.0000 0.92588  0.76470  0.07412  Biso   1.000  C
  C831     1.0000 0.91375  0.79630  0.08625  Biso   1.000  C
  H2097    1.0000 0.92260  0.81680  0.07740  Biso   1.000  H
  C832     1.0000 0.88744  0.79740  0.11256  Biso   1.000  C
  C833     1.0000 0.87545  0.76620  0.12455  Biso   1.000  C
  H2098    1.0000 0.85850  0.76590  0.14150  Biso   1.000  H
  C834     1.0000 0.88780  0.73560  0.11220  Biso   1.000  C
  C835     1.0000 0.91306  0.73430  0.08694  Biso   1.000  C
  H2099    1.0000 0.92120  0.71320  0.07880  Biso   1.000  H
  C836     1.0000 0.87310  0.70100  0.12690  Biso   1.000  C
  C837     1.0000 0.87315  0.83040  0.12685  Biso   1.000  C
  H2100    1.0000 0.86090  0.56062  0.13910  Biso   1.000  H
  O558     1.0000 0.89910  0.58700  0.10090  Biso   1.000  O
  O559     1.0000 0.96365  0.23690  0.53635  Biso   1.000  O
  O560     1.0000 0.96392  0.29450  0.53608  Biso   1.000  O
  O561     1.0000 0.84999  0.20485  0.65001  Biso   1.000  O
  O562     1.0000 0.88464  0.17484  0.61536  Biso   1.000  O
  O563     1.0000 0.87740  0.07120  0.62260  Biso   1.000  O
  C838     1.0000 0.95330  0.26620  0.54670  Biso   1.000  C
  C839     1.0000 0.92588  0.26470  0.57412  Biso   1.000  C
  C840     1.0000 0.91375  0.29630  0.58625  Biso   1.000  C
  H2101    1.0000 0.92260  0.31680  0.57740  Biso   1.000  H
  C841     1.0000 0.88744  0.29740  0.61256  Biso   1.000  C
  C842     1.0000 0.87545  0.26620  0.62455  Biso   1.000  C
  H2102    1.0000 0.85850  0.26590  0.64150  Biso   1.000  H
  C843     1.0000 0.88780  0.23560  0.61220  Biso   1.000  C
  C844     1.0000 0.91306  0.23430  0.58694  Biso   1.000  C
  H2103    1.0000 0.92120  0.21320  0.57880  Biso   1.000  H
  C845     1.0000 0.87310  0.20100  0.62690  Biso   1.000  C
  C846     1.0000 0.87315  0.33040  0.62685  Biso   1.000  C
  H2104    1.0000 0.86090  0.06062  0.63910  Biso   1.000  H
  O564     1.0000 0.89910  0.08700  0.60090  Biso   1.000  O
  O565     1.0000 0.46365  0.73690  0.53635  Biso   1.000  O
  O566     1.0000 0.46392  0.79450  0.53608  Biso   1.000  O
  O567     1.0000 0.34999  0.70485  0.65001  Biso   1.000  O
  O568     1.0000 0.38464  0.67484  0.61536  Biso   1.000  O
  O569     1.0000 0.37740  0.57120  0.62260  Biso   1.000  O
  C847     1.0000 0.45330  0.76620  0.54670  Biso   1.000  C
  C848     1.0000 0.42588  0.76470  0.57412  Biso   1.000  C
  C849     1.0000 0.41375  0.79630  0.58625  Biso   1.000  C
  H2105    1.0000 0.42260  0.81680  0.57740  Biso   1.000  H
  C850     1.0000 0.38744  0.79740  0.61256  Biso   1.000  C
  C851     1.0000 0.37545  0.76620  0.62455  Biso   1.000  C
  H2106    1.0000 0.35850  0.76590  0.64150  Biso   1.000  H
  C852     1.0000 0.38780  0.73560  0.61220  Biso   1.000  C
  C853     1.0000 0.41306  0.73430  0.58694  Biso   1.000  C
  H2107    1.0000 0.42120  0.71320  0.57880  Biso   1.000  H
  C854     1.0000 0.37310  0.70100  0.62690  Biso   1.000  C
  C855     1.0000 0.37315  0.83040  0.62685  Biso   1.000  C
  H2108    1.0000 0.36090  0.56062  0.63910  Biso   1.000  H
  O570     1.0000 0.39910  0.58700  0.60090  Biso   1.000  O
  O571     1.0000 0.46365  0.23690  0.03635  Biso   1.000  O
  O572     1.0000 0.46392  0.29450  0.03608  Biso   1.000  O
  O573     1.0000 0.34999  0.20485  0.15001  Biso   1.000  O
  O574     1.0000 0.38464  0.17484  0.11536  Biso   1.000  O
  O575     1.0000 0.37740  0.07120  0.12260  Biso   1.000  O
  C856     1.0000 0.45330  0.26620  0.04670  Biso   1.000  C
  C857     1.0000 0.42588  0.26470  0.07412  Biso   1.000  C
  C858     1.0000 0.41375  0.29630  0.08625  Biso   1.000  C
  H2109    1.0000 0.42260  0.31680  0.07740  Biso   1.000  H
  C859     1.0000 0.38744  0.29740  0.11256  Biso   1.000  C
  C860     1.0000 0.37545  0.26620  0.12455  Biso   1.000  C
  H2110    1.0000 0.35850  0.26590  0.14150  Biso   1.000  H
  C861     1.0000 0.38780  0.23560  0.11220  Biso   1.000  C
  C862     1.0000 0.41306  0.23430  0.08694  Biso   1.000  C
  H2111    1.0000 0.42120  0.21320  0.07880  Biso   1.000  H
  C863     1.0000 0.37310  0.20100  0.12690  Biso   1.000  C
  C864     1.0000 0.37315  0.33040  0.12685  Biso   1.000  C
  H2112    1.0000 0.36090  0.06062  0.13910  Biso   1.000  H
  O576     1.0000 0.39910  0.08700  0.10090  Biso   1.000  O
  C865     1.0000 0.84529  0.15471  0.11150  Biso   1.000  C
  C866     1.0000 0.82820  0.17180  0.07960  Biso   1.000  C
  C867     1.0000 0.84529  0.65471  0.61150  Biso   1.000  C
  C868     1.0000 0.82820  0.67180  0.57960  Biso   1.000  C
  C869     1.0000 0.34529  0.15471  0.61150  Biso   1.000  C
  C870     1.0000 0.32820  0.17180  0.57960  Biso   1.000  C
  C871     1.0000 0.34529  0.65471  0.11150  Biso   1.000  C
  C872     1.0000 0.32820  0.67180  0.07960  Biso   1.000  C
  C873     1.0000 0.15471  0.84529  0.11150  Biso   1.000  C
  C874     1.0000 0.17180  0.82820  0.07960  Biso   1.000  C
  C875     1.0000 0.15471  0.34529  0.61150  Biso   1.000  C
  C876     1.0000 0.17180  0.32820  0.57960  Biso   1.000  C
  C877     1.0000 0.65471  0.84529  0.61150  Biso   1.000  C
  C878     1.0000 0.67180  0.82820  0.57960  Biso   1.000  C
  C879     1.0000 0.65471  0.34529  0.11150  Biso   1.000  C
  C880     1.0000 0.67180  0.32820  0.07960  Biso   1.000  C
  C881     1.0000 0.15471  0.15471  0.88850  Biso   1.000  C
  C882     1.0000 0.17180  0.17180  0.92040  Biso   1.000  C
  C883     1.0000 0.15471  0.65471  0.38850  Biso   1.000  C
  C884     1.0000 0.17180  0.67180  0.42040  Biso   1.000  C
  C885     1.0000 0.65471  0.15471  0.38850  Biso   1.000  C
  C886     1.0000 0.67180  0.17180  0.42040  Biso   1.000  C
  C887     1.0000 0.65471  0.65471  0.88850  Biso   1.000  C
  C888     1.0000 0.67180  0.67180  0.92040  Biso   1.000  C
  C889     1.0000 0.84529  0.84529  0.88850  Biso   1.000  C
  C890     1.0000 0.82820  0.82820  0.92040  Biso   1.000  C
  C891     1.0000 0.84529  0.34529  0.38850  Biso   1.000  C
  C892     1.0000 0.82820  0.32820  0.42040  Biso   1.000  C
  C893     1.0000 0.34529  0.84529  0.38850  Biso   1.000  C
  C894     1.0000 0.32820  0.82820  0.42040  Biso   1.000  C
  C895     1.0000 0.34529  0.34529  0.88850  Biso   1.000  C
  C896     1.0000 0.32820  0.32820  0.92040  Biso   1.000  C
  C897     1.0000 0.11150  0.84529  0.15471  Biso   1.000  C
  C898     1.0000 0.07960  0.82820  0.17180  Biso   1.000  C
  C899     1.0000 0.11150  0.34529  0.65471  Biso   1.000  C
  C900     1.0000 0.07960  0.32820  0.67180  Biso   1.000  C
  C901     1.0000 0.61150  0.84529  0.65471  Biso   1.000  C
  C902     1.0000 0.57960  0.82820  0.67180  Biso   1.000  C
  C903     1.0000 0.61150  0.34529  0.15471  Biso   1.000  C
  C904     1.0000 0.57960  0.32820  0.17180  Biso   1.000  C
  C905     1.0000 0.11150  0.15471  0.84529  Biso   1.000  C
  C906     1.0000 0.07960  0.17180  0.82820  Biso   1.000  C
  C907     1.0000 0.11150  0.65471  0.34529  Biso   1.000  C
  C908     1.0000 0.07960  0.67180  0.32820  Biso   1.000  C
  C909     1.0000 0.61150  0.15471  0.34529  Biso   1.000  C
  C910     1.0000 0.57960  0.17180  0.32820  Biso   1.000  C
  C911     1.0000 0.61150  0.65471  0.84529  Biso   1.000  C
  C912     1.0000 0.57960  0.67180  0.82820  Biso   1.000  C
  C913     1.0000 0.88850  0.15471  0.15471  Biso   1.000  C
  C914     1.0000 0.92040  0.17180  0.17180  Biso   1.000  C
  C915     1.0000 0.88850  0.65471  0.65471  Biso   1.000  C
  C916     1.0000 0.92040  0.67180  0.67180  Biso   1.000  C
  C917     1.0000 0.38850  0.15471  0.65471  Biso   1.000  C
  C918     1.0000 0.42040  0.17180  0.67180  Biso   1.000  C
  C919     1.0000 0.38850  0.65471  0.15471  Biso   1.000  C
  C920     1.0000 0.42040  0.67180  0.17180  Biso   1.000  C
  C921     1.0000 0.88850  0.84529  0.84529  Biso   1.000  C
  C922     1.0000 0.92040  0.82820  0.82820  Biso   1.000  C
  C923     1.0000 0.88850  0.34529  0.34529  Biso   1.000  C
  C924     1.0000 0.92040  0.32820  0.32820  Biso   1.000  C
  C925     1.0000 0.38850  0.84529  0.34529  Biso   1.000  C
  C926     1.0000 0.42040  0.82820  0.32820  Biso   1.000  C
  C927     1.0000 0.38850  0.34529  0.84529  Biso   1.000  C
  C928     1.0000 0.42040  0.32820  0.82820  Biso   1.000  C
  C929     1.0000 0.15471  0.11150  0.84529  Biso   1.000  C
  C930     1.0000 0.17180  0.07960  0.82820  Biso   1.000  C
  C931     1.0000 0.15471  0.61150  0.34529  Biso   1.000  C
  C932     1.0000 0.17180  0.57960  0.32820  Biso   1.000  C
  C933     1.0000 0.65471  0.11150  0.34529  Biso   1.000  C
  C934     1.0000 0.67180  0.07960  0.32820  Biso   1.000  C
  C935     1.0000 0.65471  0.61150  0.84529  Biso   1.000  C
  C936     1.0000 0.67180  0.57960  0.82820  Biso   1.000  C
  C937     1.0000 0.84529  0.11150  0.15471  Biso   1.000  C
  C938     1.0000 0.82820  0.07960  0.17180  Biso   1.000  C
  C939     1.0000 0.84529  0.61150  0.65471  Biso   1.000  C
  C940     1.0000 0.82820  0.57960  0.67180  Biso   1.000  C
  C941     1.0000 0.34529  0.11150  0.65471  Biso   1.000  C
  C942     1.0000 0.32820  0.07960  0.67180  Biso   1.000  C
  C943     1.0000 0.34529  0.61150  0.15471  Biso   1.000  C
  C944     1.0000 0.32820  0.57960  0.17180  Biso   1.000  C
  C945     1.0000 0.15471  0.88850  0.15471  Biso   1.000  C
  C946     1.0000 0.17180  0.92040  0.17180  Biso   1.000  C
  C947     1.0000 0.15471  0.38850  0.65471  Biso   1.000  C
  C948     1.0000 0.17180  0.42040  0.67180  Biso   1.000  C
  C949     1.0000 0.65471  0.88850  0.65471  Biso   1.000  C
  C950     1.0000 0.67180  0.92040  0.67180  Biso   1.000  C
  C951     1.0000 0.65471  0.38850  0.15471  Biso   1.000  C
  C952     1.0000 0.67180  0.42040  0.17180  Biso   1.000  C
  C953     1.0000 0.84529  0.88850  0.84529  Biso   1.000  C
  C954     1.0000 0.82820  0.92040  0.82820  Biso   1.000  C
  C955     1.0000 0.84529  0.38850  0.34529  Biso   1.000  C
  C956     1.0000 0.82820  0.42040  0.32820  Biso   1.000  C
  C957     1.0000 0.34529  0.88850  0.34529  Biso   1.000  C
  C958     1.0000 0.32820  0.92040  0.32820  Biso   1.000  C
  C959     1.0000 0.34529  0.38850  0.84529  Biso   1.000  C
  C960     1.0000 0.32820  0.42040  0.82820  Biso   1.000  C
  C961     1.0000 0.15471  0.84529  0.88850  Biso   1.000  C
  C962     1.0000 0.17180  0.82820  0.92040  Biso   1.000  C
  C963     1.0000 0.15471  0.34529  0.38850  Biso   1.000  C
  C964     1.0000 0.17180  0.32820  0.42040  Biso   1.000  C
  C965     1.0000 0.65471  0.84529  0.38850  Biso   1.000  C
  C966     1.0000 0.67180  0.82820  0.42040  Biso   1.000  C
  C967     1.0000 0.65471  0.34529  0.88850  Biso   1.000  C
  C968     1.0000 0.67180  0.32820  0.92040  Biso   1.000  C
  C969     1.0000 0.84529  0.15471  0.88850  Biso   1.000  C
  C970     1.0000 0.82820  0.17180  0.92040  Biso   1.000  C
  C971     1.0000 0.84529  0.65471  0.38850  Biso   1.000  C
  C972     1.0000 0.82820  0.67180  0.42040  Biso   1.000  C
  C973     1.0000 0.34529  0.15471  0.38850  Biso   1.000  C
  C974     1.0000 0.32820  0.17180  0.42040  Biso   1.000  C
  C975     1.0000 0.34529  0.65471  0.88850  Biso   1.000  C
  C976     1.0000 0.32820  0.67180  0.92040  Biso   1.000  C
  C977     1.0000 0.15471  0.15471  0.11150  Biso   1.000  C
  C978     1.0000 0.17180  0.17180  0.07960  Biso   1.000  C
  C979     1.0000 0.15471  0.65471  0.61150  Biso   1.000  C
  C980     1.0000 0.17180  0.67180  0.57960  Biso   1.000  C
  C981     1.0000 0.65471  0.15471  0.61150  Biso   1.000  C
  C982     1.0000 0.67180  0.17180  0.57960  Biso   1.000  C
  C983     1.0000 0.65471  0.65471  0.11150  Biso   1.000  C
  C984     1.0000 0.67180  0.67180  0.07960  Biso   1.000  C
  C985     1.0000 0.84529  0.84529  0.11150  Biso   1.000  C
  C986     1.0000 0.82820  0.82820  0.07960  Biso   1.000  C
  C987     1.0000 0.84529  0.34529  0.61150  Biso   1.000  C
  C988     1.0000 0.82820  0.32820  0.57960  Biso   1.000  C
  C989     1.0000 0.34529  0.84529  0.61150  Biso   1.000  C
  C990     1.0000 0.32820  0.82820  0.57960  Biso   1.000  C
  C991     1.0000 0.34529  0.34529  0.11150  Biso   1.000  C
  C992     1.0000 0.32820  0.32820  0.07960  Biso   1.000  C
  C993     1.0000 0.84529  0.11150  0.84529  Biso   1.000  C
  C994     1.0000 0.82820  0.07960  0.82820  Biso   1.000  C
  C995     1.0000 0.84529  0.61150  0.34529  Biso   1.000  C
  C996     1.0000 0.82820  0.57960  0.32820  Biso   1.000  C
  C997     1.0000 0.34529  0.11150  0.34529  Biso   1.000  C
  C998     1.0000 0.32820  0.07960  0.32820  Biso   1.000  C
  C999     1.0000 0.34529  0.61150  0.84529  Biso   1.000  C
  C1000    1.0000 0.32820  0.57960  0.82820  Biso   1.000  C
  C1001    1.0000 0.15471  0.11150  0.15471  Biso   1.000  C
  C1002    1.0000 0.17180  0.07960  0.17180  Biso   1.000  C
  C1003    1.0000 0.15471  0.61150  0.65471  Biso   1.000  C
  C1004    1.0000 0.17180  0.57960  0.67180  Biso   1.000  C
  C1005    1.0000 0.65471  0.11150  0.65471  Biso   1.000  C
  C1006    1.0000 0.67180  0.07960  0.67180  Biso   1.000  C
  C1007    1.0000 0.65471  0.61150  0.15471  Biso   1.000  C
  C1008    1.0000 0.67180  0.57960  0.17180  Biso   1.000  C
  C1009    1.0000 0.15471  0.88850  0.84529  Biso   1.000  C
  C1010    1.0000 0.17180  0.92040  0.82820  Biso   1.000  C
  C1011    1.0000 0.15471  0.38850  0.34529  Biso   1.000  C
  C1012    1.0000 0.17180  0.42040  0.32820  Biso   1.000  C
  C1013    1.0000 0.65471  0.88850  0.34529  Biso   1.000  C
  C1014    1.0000 0.67180  0.92040  0.32820  Biso   1.000  C
  C1015    1.0000 0.65471  0.38850  0.84529  Biso   1.000  C
  C1016    1.0000 0.67180  0.42040  0.82820  Biso   1.000  C
  C1017    1.0000 0.84529  0.88850  0.15471  Biso   1.000  C
  C1018    1.0000 0.82820  0.92040  0.17180  Biso   1.000  C
  C1019    1.0000 0.84529  0.38850  0.65471  Biso   1.000  C
  C1020    1.0000 0.82820  0.42040  0.67180  Biso   1.000  C
  C1021    1.0000 0.34529  0.88850  0.65471  Biso   1.000  C
  C1022    1.0000 0.32820  0.92040  0.67180  Biso   1.000  C
  C1023    1.0000 0.34529  0.38850  0.15471  Biso   1.000  C
  C1024    1.0000 0.32820  0.42040  0.17180  Biso   1.000  C
  C1025    1.0000 0.11150  0.15471  0.15471  Biso   1.000  C
  C1026    1.0000 0.07960  0.17180  0.17180  Biso   1.000  C
  C1027    1.0000 0.11150  0.65471  0.65471  Biso   1.000  C
  C1028    1.0000 0.07960  0.67180  0.67180  Biso   1.000  C
  C1029    1.0000 0.61150  0.15471  0.65471  Biso   1.000  C
  C1030    1.0000 0.57960  0.17180  0.67180  Biso   1.000  C
  C1031    1.0000 0.61150  0.65471  0.15471  Biso   1.000  C
  C1032    1.0000 0.57960  0.67180  0.17180  Biso   1.000  C
  C1033    1.0000 0.11150  0.84529  0.84529  Biso   1.000  C
  C1034    1.0000 0.07960  0.82820  0.82820  Biso   1.000  C
  C1035    1.0000 0.11150  0.34529  0.34529  Biso   1.000  C
  C1036    1.0000 0.07960  0.32820  0.32820  Biso   1.000  C
  C1037    1.0000 0.61150  0.84529  0.34529  Biso   1.000  C
  C1038    1.0000 0.57960  0.82820  0.32820  Biso   1.000  C
  C1039    1.0000 0.61150  0.34529  0.84529  Biso   1.000  C
  C1040    1.0000 0.57960  0.32820  0.82820  Biso   1.000  C
  C1041    1.0000 0.88850  0.15471  0.84529  Biso   1.000  C
  C1042    1.0000 0.92040  0.17180  0.82820  Biso   1.000  C
  C1043    1.0000 0.88850  0.65471  0.34529  Biso   1.000  C
  C1044    1.0000 0.92040  0.67180  0.32820  Biso   1.000  C
  C1045    1.0000 0.38850  0.15471  0.34529  Biso   1.000  C
  C1046    1.0000 0.42040  0.17180  0.32820  Biso   1.000  C
  C1047    1.0000 0.38850  0.65471  0.84529  Biso   1.000  C
  C1048    1.0000 0.42040  0.67180  0.82820  Biso   1.000  C
  C1049    1.0000 0.88850  0.84529  0.15471  Biso   1.000  C
  C1050    1.0000 0.92040  0.82820  0.17180  Biso   1.000  C
  C1051    1.0000 0.88850  0.34529  0.65471  Biso   1.000  C
  C1052    1.0000 0.92040  0.32820  0.67180  Biso   1.000  C
  C1053    1.0000 0.38850  0.84529  0.65471  Biso   1.000  C
  C1054    1.0000 0.42040  0.82820  0.67180  Biso   1.000  C
  C1055    1.0000 0.38850  0.34529  0.15471  Biso   1.000  C
  C1056    1.0000 0.42040  0.32820  0.17180  Biso   1.000  C
