data_image0
_cell_length_a       37.9569
_cell_length_b       37.9569
_cell_length_c       37.9569
_cell_angle_alpha    90
_cell_angle_beta     90
_cell_angle_gamma    90

_symmetry_space_group_name_H-M    "P 1"
_symmetry_int_tables_number       1

loop_
  _symmetry_equiv_pos_as_xyz
  'x, y, z'

loop_
  _atom_site_label
  _atom_site_occupancy
  _atom_site_fract_x
  _atom_site_fract_y
  _atom_site_fract_z
  _atom_site_thermal_displace_type
  _atom_site_B_iso_or_equiv
  _atom_site_type_symbol
  Gd1      1.0000 0.24384  0.91137  0.25577  Biso   1.000  Gd
  O1       1.0000 0.24260  0.88280  0.20110  Biso   1.000  O
  O2       1.0000 0.25520  0.93910  0.20170  Biso   1.000  O
  O3       1.0000 0.29960  0.88340  0.25920  Biso   1.000  O
  O4       1.0000 0.29970  0.94010  0.26640  Biso   1.000  O
  O5       1.0000 0.41210  0.81860  0.26130  Biso   1.000  O
  O6       1.0000 0.46210  0.84240  0.27700  Biso   1.000  O
  O7       1.0000 0.25420  0.81860  0.08690  Biso   1.000  O
  O8       1.0000 0.29950  0.83500  0.05770  Biso   1.000  O
  C1       1.0000 0.25240  0.91120  0.18310  Biso   1.000  C
  C2       1.0000 0.26150  0.90940  0.14440  Biso   1.000  C
  C3       1.0000 0.28080  0.93910  0.13360  Biso   1.000  C
  H1       1.0000 0.28360  0.95920  0.14830  Biso   1.000  H
  C4       1.0000 0.29560  0.93750  0.09980  Biso   1.000  C
  C5       1.0000 0.29310  0.90600  0.08090  Biso   1.000  C
  H2       1.0000 0.30540  0.90460  0.05910  Biso   1.000  H
  C6       1.0000 0.27410  0.87620  0.09160  Biso   1.000  C
  C7       1.0000 0.25910  0.87830  0.12510  Biso   1.000  C
  H3       1.0000 0.24710  0.85850  0.13470  Biso   1.000  H
  C8       1.0000 0.31480  0.96940  0.08580  Biso   1.000  C
  C9       1.0000 0.34560  0.96840  0.06580  Biso   1.000  C
  H4       1.0000 0.35840  0.94720  0.06260  Biso   1.000  H
  C10      1.0000 0.31530  0.91170  0.26720  Biso   1.000  C
  C11      1.0000 0.35400  0.90790  0.27270  Biso   1.000  C
  C12      1.0000 0.37330  0.87710  0.26810  Biso   1.000  C
  H5       1.0000 0.36230  0.85710  0.25780  Biso   1.000  H
  C13      1.0000 0.40850  0.87510  0.27820  Biso   1.000  C
  C14      1.0000 0.42350  0.90490  0.29350  Biso   1.000  C
  H6       1.0000 0.44750  0.90400  0.30080  Biso   1.000  H
  C15      1.0000 0.40490  0.93610  0.29870  Biso   1.000  C
  C16      1.0000 0.36890  0.93760  0.29200  Biso   1.000  C
  H7       1.0000 0.35530  0.96030  0.29640  Biso   1.000  H
  C17      1.0000 0.42100  0.97080  0.31170  Biso   1.000  C
  C18      1.0000 0.45490  0.96990  0.32550  Biso   1.000  C
  H8       1.0000 0.46980  0.95010  0.32260  Biso   1.000  H
  C19      1.0000 0.43060  0.84250  0.27180  Biso   1.000  C
  C20      1.0000 0.27570  0.84050  0.07790  Biso   1.000  C
  O9       1.0000 0.23110  0.97190  0.26790  Biso   1.000  O
  Gd2      1.0000 0.74384  0.41137  0.75577  Biso   1.000  Gd
  O10      1.0000 0.74260  0.38280  0.70110  Biso   1.000  O
  O11      1.0000 0.75520  0.43910  0.70170  Biso   1.000  O
  O12      1.0000 0.79960  0.38340  0.75920  Biso   1.000  O
  O13      1.0000 0.79970  0.44010  0.76640  Biso   1.000  O
  O14      1.0000 0.91210  0.31860  0.76130  Biso   1.000  O
  O15      1.0000 0.96210  0.34240  0.77700  Biso   1.000  O
  O16      1.0000 0.75420  0.31860  0.58690  Biso   1.000  O
  O17      1.0000 0.79950  0.33500  0.55770  Biso   1.000  O
  C21      1.0000 0.75240  0.41120  0.68310  Biso   1.000  C
  C22      1.0000 0.76150  0.40940  0.64440  Biso   1.000  C
  C23      1.0000 0.78080  0.43910  0.63360  Biso   1.000  C
  H9       1.0000 0.78360  0.45920  0.64830  Biso   1.000  H
  C24      1.0000 0.79560  0.43750  0.59980  Biso   1.000  C
  C25      1.0000 0.79310  0.40600  0.58090  Biso   1.000  C
  H10      1.0000 0.80540  0.40460  0.55910  Biso   1.000  H
  C26      1.0000 0.77410  0.37620  0.59160  Biso   1.000  C
  C27      1.0000 0.75910  0.37830  0.62510  Biso   1.000  C
  H11      1.0000 0.74710  0.35850  0.63470  Biso   1.000  H
  C28      1.0000 0.81480  0.46940  0.58580  Biso   1.000  C
  C29      1.0000 0.84560  0.46840  0.56580  Biso   1.000  C
  H12      1.0000 0.85840  0.44720  0.56260  Biso   1.000  H
  C30      1.0000 0.81530  0.41170  0.76720  Biso   1.000  C
  C31      1.0000 0.85400  0.40790  0.77270  Biso   1.000  C
  C32      1.0000 0.87330  0.37710  0.76810  Biso   1.000  C
  H13      1.0000 0.86230  0.35710  0.75780  Biso   1.000  H
  C33      1.0000 0.90850  0.37510  0.77820  Biso   1.000  C
  C34      1.0000 0.92350  0.40490  0.79350  Biso   1.000  C
  H14      1.0000 0.94750  0.40400  0.80080  Biso   1.000  H
  C35      1.0000 0.90490  0.43610  0.79870  Biso   1.000  C
  C36      1.0000 0.86890  0.43760  0.79200  Biso   1.000  C
  H15      1.0000 0.85530  0.46030  0.79640  Biso   1.000  H
  C37      1.0000 0.92100  0.47080  0.81170  Biso   1.000  C
  C38      1.0000 0.95490  0.46990  0.82550  Biso   1.000  C
  H16      1.0000 0.96980  0.45010  0.82260  Biso   1.000  H
  C39      1.0000 0.93060  0.34250  0.77180  Biso   1.000  C
  C40      1.0000 0.77570  0.34050  0.57790  Biso   1.000  C
  O18      1.0000 0.73110  0.47190  0.76790  Biso   1.000  O
  Gd3      1.0000 0.75616  0.08863  0.25577  Biso   1.000  Gd
  O19      1.0000 0.75740  0.11720  0.20110  Biso   1.000  O
  O20      1.0000 0.74480  0.06090  0.20170  Biso   1.000  O
  O21      1.0000 0.70040  0.11660  0.25920  Biso   1.000  O
  O22      1.0000 0.70030  0.05990  0.26640  Biso   1.000  O
  O23      1.0000 0.58790  0.18140  0.26130  Biso   1.000  O
  O24      1.0000 0.53790  0.15760  0.27700  Biso   1.000  O
  O25      1.0000 0.74580  0.18140  0.08690  Biso   1.000  O
  O26      1.0000 0.70050  0.16500  0.05770  Biso   1.000  O
  C41      1.0000 0.74760  0.08880  0.18310  Biso   1.000  C
  C42      1.0000 0.73850  0.09060  0.14440  Biso   1.000  C
  C43      1.0000 0.71920  0.06090  0.13360  Biso   1.000  C
  H17      1.0000 0.71640  0.04080  0.14830  Biso   1.000  H
  C44      1.0000 0.70440  0.06250  0.09980  Biso   1.000  C
  C45      1.0000 0.70690  0.09400  0.08090  Biso   1.000  C
  H18      1.0000 0.69460  0.09540  0.05910  Biso   1.000  H
  C46      1.0000 0.72590  0.12380  0.09160  Biso   1.000  C
  C47      1.0000 0.74090  0.12170  0.12510  Biso   1.000  C
  H19      1.0000 0.75290  0.14150  0.13470  Biso   1.000  H
  C48      1.0000 0.68520  0.03060  0.08580  Biso   1.000  C
  C49      1.0000 0.65440  0.03160  0.06580  Biso   1.000  C
  H20      1.0000 0.64160  0.05280  0.06260  Biso   1.000  H
  C50      1.0000 0.68470  0.08830  0.26720  Biso   1.000  C
  C51      1.0000 0.64600  0.09210  0.27270  Biso   1.000  C
  C52      1.0000 0.62670  0.12290  0.26810  Biso   1.000  C
  H21      1.0000 0.63770  0.14290  0.25780  Biso   1.000  H
  C53      1.0000 0.59150  0.12490  0.27820  Biso   1.000  C
  C54      1.0000 0.57650  0.09510  0.29350  Biso   1.000  C
  H22      1.0000 0.55250  0.09600  0.30080  Biso   1.000  H
  C55      1.0000 0.59510  0.06390  0.29870  Biso   1.000  C
  C56      1.0000 0.63110  0.06240  0.29200  Biso   1.000  C
  H23      1.0000 0.64470  0.03970  0.29640  Biso   1.000  H
  C57      1.0000 0.57900  0.02920  0.31170  Biso   1.000  C
  C58      1.0000 0.54510  0.03010  0.32550  Biso   1.000  C
  H24      1.0000 0.53020  0.04990  0.32260  Biso   1.000  H
  C59      1.0000 0.56940  0.15750  0.27180  Biso   1.000  C
  C60      1.0000 0.72430  0.15950  0.07790  Biso   1.000  C
  O27      1.0000 0.76890  0.02810  0.26790  Biso   1.000  O
  Gd4      1.0000 0.25616  0.58863  0.75577  Biso   1.000  Gd
  O28      1.0000 0.25740  0.61720  0.70110  Biso   1.000  O
  O29      1.0000 0.24480  0.56090  0.70170  Biso   1.000  O
  O30      1.0000 0.20040  0.61660  0.75920  Biso   1.000  O
  O31      1.0000 0.20030  0.55990  0.76640  Biso   1.000  O
  O32      1.0000 0.08790  0.68140  0.76130  Biso   1.000  O
  O33      1.0000 0.03790  0.65760  0.77700  Biso   1.000  O
  O34      1.0000 0.24580  0.68140  0.58690  Biso   1.000  O
  O35      1.0000 0.20050  0.66500  0.55770  Biso   1.000  O
  C61      1.0000 0.24760  0.58880  0.68310  Biso   1.000  C
  C62      1.0000 0.23850  0.59060  0.64440  Biso   1.000  C
  C63      1.0000 0.21920  0.56090  0.63360  Biso   1.000  C
  H25      1.0000 0.21640  0.54080  0.64830  Biso   1.000  H
  C64      1.0000 0.20440  0.56250  0.59980  Biso   1.000  C
  C65      1.0000 0.20690  0.59400  0.58090  Biso   1.000  C
  H26      1.0000 0.19460  0.59540  0.55910  Biso   1.000  H
  C66      1.0000 0.22590  0.62380  0.59160  Biso   1.000  C
  C67      1.0000 0.24090  0.62170  0.62510  Biso   1.000  C
  H27      1.0000 0.25290  0.64150  0.63470  Biso   1.000  H
  C68      1.0000 0.18520  0.53060  0.58580  Biso   1.000  C
  C69      1.0000 0.15440  0.53160  0.56580  Biso   1.000  C
  H28      1.0000 0.14160  0.55280  0.56260  Biso   1.000  H
  C70      1.0000 0.18470  0.58830  0.76720  Biso   1.000  C
  C71      1.0000 0.14600  0.59210  0.77270  Biso   1.000  C
  C72      1.0000 0.12670  0.62290  0.76810  Biso   1.000  C
  H29      1.0000 0.13770  0.64290  0.75780  Biso   1.000  H
  C73      1.0000 0.09150  0.62490  0.77820  Biso   1.000  C
  C74      1.0000 0.07650  0.59510  0.79350  Biso   1.000  C
  H30      1.0000 0.05250  0.59600  0.80080  Biso   1.000  H
  C75      1.0000 0.09510  0.56390  0.79870  Biso   1.000  C
  C76      1.0000 0.13110  0.56240  0.79200  Biso   1.000  C
  H31      1.0000 0.14470  0.53970  0.79640  Biso   1.000  H
  C77      1.0000 0.07900  0.52920  0.81170  Biso   1.000  C
  C78      1.0000 0.04510  0.53010  0.82550  Biso   1.000  C
  H32      1.0000 0.03020  0.54990  0.82260  Biso   1.000  H
  C79      1.0000 0.06940  0.65750  0.77180  Biso   1.000  C
  C80      1.0000 0.22430  0.65950  0.57790  Biso   1.000  C
  O36      1.0000 0.26890  0.52810  0.76790  Biso   1.000  O
  Gd5      1.0000 0.75616  0.91137  0.74423  Biso   1.000  Gd
  O37      1.0000 0.75740  0.88280  0.79890  Biso   1.000  O
  O38      1.0000 0.74480  0.93910  0.79830  Biso   1.000  O
  O39      1.0000 0.70040  0.88340  0.74080  Biso   1.000  O
  O40      1.0000 0.70030  0.94010  0.73360  Biso   1.000  O
  O41      1.0000 0.58790  0.81860  0.73870  Biso   1.000  O
  O42      1.0000 0.53790  0.84240  0.72300  Biso   1.000  O
  O43      1.0000 0.74580  0.81860  0.91310  Biso   1.000  O
  O44      1.0000 0.70050  0.83500  0.94230  Biso   1.000  O
  C81      1.0000 0.74760  0.91120  0.81690  Biso   1.000  C
  C82      1.0000 0.73850  0.90940  0.85560  Biso   1.000  C
  C83      1.0000 0.71920  0.93910  0.86640  Biso   1.000  C
  H33      1.0000 0.71640  0.95920  0.85170  Biso   1.000  H
  C84      1.0000 0.70440  0.93750  0.90020  Biso   1.000  C
  C85      1.0000 0.70690  0.90600  0.91910  Biso   1.000  C
  H34      1.0000 0.69460  0.90460  0.94090  Biso   1.000  H
  C86      1.0000 0.72590  0.87620  0.90840  Biso   1.000  C
  C87      1.0000 0.74090  0.87830  0.87490  Biso   1.000  C
  H35      1.0000 0.75290  0.85850  0.86530  Biso   1.000  H
  C88      1.0000 0.68520  0.96940  0.91420  Biso   1.000  C
  C89      1.0000 0.65440  0.96840  0.93420  Biso   1.000  C
  H36      1.0000 0.64160  0.94720  0.93740  Biso   1.000  H
  C90      1.0000 0.68470  0.91170  0.73280  Biso   1.000  C
  C91      1.0000 0.64600  0.90790  0.72730  Biso   1.000  C
  C92      1.0000 0.62670  0.87710  0.73190  Biso   1.000  C
  H37      1.0000 0.63770  0.85710  0.74220  Biso   1.000  H
  C93      1.0000 0.59150  0.87510  0.72180  Biso   1.000  C
  C94      1.0000 0.57650  0.90490  0.70650  Biso   1.000  C
  H38      1.0000 0.55250  0.90400  0.69920  Biso   1.000  H
  C95      1.0000 0.59510  0.93610  0.70130  Biso   1.000  C
  C96      1.0000 0.63110  0.93760  0.70800  Biso   1.000  C
  H39      1.0000 0.64470  0.96030  0.70360  Biso   1.000  H
  C97      1.0000 0.57900  0.97080  0.68830  Biso   1.000  C
  C98      1.0000 0.54510  0.96990  0.67450  Biso   1.000  C
  H40      1.0000 0.53020  0.95010  0.67740  Biso   1.000  H
  C99      1.0000 0.56940  0.84250  0.72820  Biso   1.000  C
  C100     1.0000 0.72430  0.84050  0.92210  Biso   1.000  C
  O45      1.0000 0.76890  0.97190  0.73210  Biso   1.000  O
  Gd6      1.0000 0.25616  0.41137  0.24423  Biso   1.000  Gd
  O46      1.0000 0.25740  0.38280  0.29890  Biso   1.000  O
  O47      1.0000 0.24480  0.43910  0.29830  Biso   1.000  O
  O48      1.0000 0.20040  0.38340  0.24080  Biso   1.000  O
  O49      1.0000 0.20030  0.44010  0.23360  Biso   1.000  O
  O50      1.0000 0.08790  0.31860  0.23870  Biso   1.000  O
  O51      1.0000 0.03790  0.34240  0.22300  Biso   1.000  O
  O52      1.0000 0.24580  0.31860  0.41310  Biso   1.000  O
  O53      1.0000 0.20050  0.33500  0.44230  Biso   1.000  O
  C101     1.0000 0.24760  0.41120  0.31690  Biso   1.000  C
  C102     1.0000 0.23850  0.40940  0.35560  Biso   1.000  C
  C103     1.0000 0.21920  0.43910  0.36640  Biso   1.000  C
  H41      1.0000 0.21640  0.45920  0.35170  Biso   1.000  H
  C104     1.0000 0.20440  0.43750  0.40020  Biso   1.000  C
  C105     1.0000 0.20690  0.40600  0.41910  Biso   1.000  C
  H42      1.0000 0.19460  0.40460  0.44090  Biso   1.000  H
  C106     1.0000 0.22590  0.37620  0.40840  Biso   1.000  C
  C107     1.0000 0.24090  0.37830  0.37490  Biso   1.000  C
  H43      1.0000 0.25290  0.35850  0.36530  Biso   1.000  H
  C108     1.0000 0.18520  0.46940  0.41420  Biso   1.000  C
  C109     1.0000 0.15440  0.46840  0.43420  Biso   1.000  C
  H44      1.0000 0.14160  0.44720  0.43740  Biso   1.000  H
  C110     1.0000 0.18470  0.41170  0.23280  Biso   1.000  C
  C111     1.0000 0.14600  0.40790  0.22730  Biso   1.000  C
  C112     1.0000 0.12670  0.37710  0.23190  Biso   1.000  C
  H45      1.0000 0.13770  0.35710  0.24220  Biso   1.000  H
  C113     1.0000 0.09150  0.37510  0.22180  Biso   1.000  C
  C114     1.0000 0.07650  0.40490  0.20650  Biso   1.000  C
  H46      1.0000 0.05250  0.40400  0.19920  Biso   1.000  H
  C115     1.0000 0.09510  0.43610  0.20130  Biso   1.000  C
  C116     1.0000 0.13110  0.43760  0.20800  Biso   1.000  C
  H47      1.0000 0.14470  0.46030  0.20360  Biso   1.000  H
  C117     1.0000 0.07900  0.47080  0.18830  Biso   1.000  C
  C118     1.0000 0.04510  0.46990  0.17450  Biso   1.000  C
  H48      1.0000 0.03020  0.45010  0.17740  Biso   1.000  H
  C119     1.0000 0.06940  0.34250  0.22820  Biso   1.000  C
  C120     1.0000 0.22430  0.34050  0.42210  Biso   1.000  C
  O54      1.0000 0.26890  0.47190  0.23210  Biso   1.000  O
  Gd7      1.0000 0.24384  0.08863  0.74423  Biso   1.000  Gd
  O55      1.0000 0.24260  0.11720  0.79890  Biso   1.000  O
  O56      1.0000 0.25520  0.06090  0.79830  Biso   1.000  O
  O57      1.0000 0.29960  0.11660  0.74080  Biso   1.000  O
  O58      1.0000 0.29970  0.05990  0.73360  Biso   1.000  O
  O59      1.0000 0.41210  0.18140  0.73870  Biso   1.000  O
  O60      1.0000 0.46210  0.15760  0.72300  Biso   1.000  O
  O61      1.0000 0.25420  0.18140  0.91310  Biso   1.000  O
  O62      1.0000 0.29950  0.16500  0.94230  Biso   1.000  O
  C121     1.0000 0.25240  0.08880  0.81690  Biso   1.000  C
  C122     1.0000 0.26150  0.09060  0.85560  Biso   1.000  C
  C123     1.0000 0.28080  0.06090  0.86640  Biso   1.000  C
  H49      1.0000 0.28360  0.04080  0.85170  Biso   1.000  H
  C124     1.0000 0.29560  0.06250  0.90020  Biso   1.000  C
  C125     1.0000 0.29310  0.09400  0.91910  Biso   1.000  C
  H50      1.0000 0.30540  0.09540  0.94090  Biso   1.000  H
  C126     1.0000 0.27410  0.12380  0.90840  Biso   1.000  C
  C127     1.0000 0.25910  0.12170  0.87490  Biso   1.000  C
  H51      1.0000 0.24710  0.14150  0.86530  Biso   1.000  H
  C128     1.0000 0.31480  0.03060  0.91420  Biso   1.000  C
  C129     1.0000 0.34560  0.03160  0.93420  Biso   1.000  C
  H52      1.0000 0.35840  0.05280  0.93740  Biso   1.000  H
  C130     1.0000 0.31530  0.08830  0.73280  Biso   1.000  C
  C131     1.0000 0.35400  0.09210  0.72730  Biso   1.000  C
  C132     1.0000 0.37330  0.12290  0.73190  Biso   1.000  C
  H53      1.0000 0.36230  0.14290  0.74220  Biso   1.000  H
  C133     1.0000 0.40850  0.12490  0.72180  Biso   1.000  C
  C134     1.0000 0.42350  0.09510  0.70650  Biso   1.000  C
  H54      1.0000 0.44750  0.09600  0.69920  Biso   1.000  H
  C135     1.0000 0.40490  0.06390  0.70130  Biso   1.000  C
  C136     1.0000 0.36890  0.06240  0.70800  Biso   1.000  C
  H55      1.0000 0.35530  0.03970  0.70360  Biso   1.000  H
  C137     1.0000 0.42100  0.02920  0.68830  Biso   1.000  C
  C138     1.0000 0.45490  0.03010  0.67450  Biso   1.000  C
  H56      1.0000 0.46980  0.04990  0.67740  Biso   1.000  H
  C139     1.0000 0.43060  0.15750  0.72820  Biso   1.000  C
  C140     1.0000 0.27570  0.15950  0.92210  Biso   1.000  C
  O63      1.0000 0.23110  0.02810  0.73210  Biso   1.000  O
  Gd8      1.0000 0.74384  0.58863  0.24423  Biso   1.000  Gd
  O64      1.0000 0.74260  0.61720  0.29890  Biso   1.000  O
  O65      1.0000 0.75520  0.56090  0.29830  Biso   1.000  O
  O66      1.0000 0.79960  0.61660  0.24080  Biso   1.000  O
  O67      1.0000 0.79970  0.55990  0.23360  Biso   1.000  O
  O68      1.0000 0.91210  0.68140  0.23870  Biso   1.000  O
  O69      1.0000 0.96210  0.65760  0.22300  Biso   1.000  O
  O70      1.0000 0.75420  0.68140  0.41310  Biso   1.000  O
  O71      1.0000 0.79950  0.66500  0.44230  Biso   1.000  O
  C141     1.0000 0.75240  0.58880  0.31690  Biso   1.000  C
  C142     1.0000 0.76150  0.59060  0.35560  Biso   1.000  C
  C143     1.0000 0.78080  0.56090  0.36640  Biso   1.000  C
  H57      1.0000 0.78360  0.54080  0.35170  Biso   1.000  H
  C144     1.0000 0.79560  0.56250  0.40020  Biso   1.000  C
  C145     1.0000 0.79310  0.59400  0.41910  Biso   1.000  C
  H58      1.0000 0.80540  0.59540  0.44090  Biso   1.000  H
  C146     1.0000 0.77410  0.62380  0.40840  Biso   1.000  C
  C147     1.0000 0.75910  0.62170  0.37490  Biso   1.000  C
  H59      1.0000 0.74710  0.64150  0.36530  Biso   1.000  H
  C148     1.0000 0.81480  0.53060  0.41420  Biso   1.000  C
  C149     1.0000 0.84560  0.53160  0.43420  Biso   1.000  C
  H60      1.0000 0.85840  0.55280  0.43740  Biso   1.000  H
  C150     1.0000 0.81530  0.58830  0.23280  Biso   1.000  C
  C151     1.0000 0.85400  0.59210  0.22730  Biso   1.000  C
  C152     1.0000 0.87330  0.62290  0.23190  Biso   1.000  C
  H61      1.0000 0.86230  0.64290  0.24220  Biso   1.000  H
  C153     1.0000 0.90850  0.62490  0.22180  Biso   1.000  C
  C154     1.0000 0.92350  0.59510  0.20650  Biso   1.000  C
  H62      1.0000 0.94750  0.59600  0.19920  Biso   1.000  H
  C155     1.0000 0.90490  0.56390  0.20130  Biso   1.000  C
  C156     1.0000 0.86890  0.56240  0.20800  Biso   1.000  C
  H63      1.0000 0.85530  0.53970  0.20360  Biso   1.000  H
  C157     1.0000 0.92100  0.52920  0.18830  Biso   1.000  C
  C158     1.0000 0.95490  0.53010  0.17450  Biso   1.000  C
  H64      1.0000 0.96980  0.54990  0.17740  Biso   1.000  H
  C159     1.0000 0.93060  0.65750  0.22820  Biso   1.000  C
  C160     1.0000 0.77570  0.65950  0.42210  Biso   1.000  C
  O72      1.0000 0.73110  0.52810  0.23210  Biso   1.000  O
  Gd9      1.0000 0.25577  0.24384  0.91137  Biso   1.000  Gd
  O73      1.0000 0.20110  0.24260  0.88280  Biso   1.000  O
  O74      1.0000 0.20170  0.25520  0.93910  Biso   1.000  O
  O75      1.0000 0.25920  0.29960  0.88340  Biso   1.000  O
  O76      1.0000 0.26640  0.29970  0.94010  Biso   1.000  O
  O77      1.0000 0.26130  0.41210  0.81860  Biso   1.000  O
  O78      1.0000 0.27700  0.46210  0.84240  Biso   1.000  O
  O79      1.0000 0.08690  0.25420  0.81860  Biso   1.000  O
  O80      1.0000 0.05770  0.29950  0.83500  Biso   1.000  O
  C161     1.0000 0.18310  0.25240  0.91120  Biso   1.000  C
  C162     1.0000 0.14440  0.26150  0.90940  Biso   1.000  C
  C163     1.0000 0.13360  0.28080  0.93910  Biso   1.000  C
  H65      1.0000 0.14830  0.28360  0.95920  Biso   1.000  H
  C164     1.0000 0.09980  0.29560  0.93750  Biso   1.000  C
  C165     1.0000 0.08090  0.29310  0.90600  Biso   1.000  C
  H66      1.0000 0.05910  0.30540  0.90460  Biso   1.000  H
  C166     1.0000 0.09160  0.27410  0.87620  Biso   1.000  C
  C167     1.0000 0.12510  0.25910  0.87830  Biso   1.000  C
  H67      1.0000 0.13470  0.24710  0.85850  Biso   1.000  H
  C168     1.0000 0.08580  0.31480  0.96940  Biso   1.000  C
  C169     1.0000 0.06580  0.34560  0.96840  Biso   1.000  C
  H68      1.0000 0.06260  0.35840  0.94720  Biso   1.000  H
  C170     1.0000 0.26720  0.31530  0.91170  Biso   1.000  C
  C171     1.0000 0.27270  0.35400  0.90790  Biso   1.000  C
  C172     1.0000 0.26810  0.37330  0.87710  Biso   1.000  C
  H69      1.0000 0.25780  0.36230  0.85710  Biso   1.000  H
  C173     1.0000 0.27820  0.40850  0.87510  Biso   1.000  C
  C174     1.0000 0.29350  0.42350  0.90490  Biso   1.000  C
  H70      1.0000 0.30080  0.44750  0.90400  Biso   1.000  H
  C175     1.0000 0.29870  0.40490  0.93610  Biso   1.000  C
  C176     1.0000 0.29200  0.36890  0.93760  Biso   1.000  C
  H71      1.0000 0.29640  0.35530  0.96030  Biso   1.000  H
  C177     1.0000 0.31170  0.42100  0.97080  Biso   1.000  C
  C178     1.0000 0.32550  0.45490  0.96990  Biso   1.000  C
  H72      1.0000 0.32260  0.46980  0.95010  Biso   1.000  H
  C179     1.0000 0.27180  0.43060  0.84250  Biso   1.000  C
  C180     1.0000 0.07790  0.27570  0.84050  Biso   1.000  C
  O81      1.0000 0.26790  0.23110  0.97190  Biso   1.000  O
  Gd10     1.0000 0.75577  0.74384  0.41137  Biso   1.000  Gd
  O82      1.0000 0.70110  0.74260  0.38280  Biso   1.000  O
  O83      1.0000 0.70170  0.75520  0.43910  Biso   1.000  O
  O84      1.0000 0.75920  0.79960  0.38340  Biso   1.000  O
  O85      1.0000 0.76640  0.79970  0.44010  Biso   1.000  O
  O86      1.0000 0.76130  0.91210  0.31860  Biso   1.000  O
  O87      1.0000 0.77700  0.96210  0.34240  Biso   1.000  O
  O88      1.0000 0.58690  0.75420  0.31860  Biso   1.000  O
  O89      1.0000 0.55770  0.79950  0.33500  Biso   1.000  O
  C181     1.0000 0.68310  0.75240  0.41120  Biso   1.000  C
  C182     1.0000 0.64440  0.76150  0.40940  Biso   1.000  C
  C183     1.0000 0.63360  0.78080  0.43910  Biso   1.000  C
  H73      1.0000 0.64830  0.78360  0.45920  Biso   1.000  H
  C184     1.0000 0.59980  0.79560  0.43750  Biso   1.000  C
  C185     1.0000 0.58090  0.79310  0.40600  Biso   1.000  C
  H74      1.0000 0.55910  0.80540  0.40460  Biso   1.000  H
  C186     1.0000 0.59160  0.77410  0.37620  Biso   1.000  C
  C187     1.0000 0.62510  0.75910  0.37830  Biso   1.000  C
  H75      1.0000 0.63470  0.74710  0.35850  Biso   1.000  H
  C188     1.0000 0.58580  0.81480  0.46940  Biso   1.000  C
  C189     1.0000 0.56580  0.84560  0.46840  Biso   1.000  C
  H76      1.0000 0.56260  0.85840  0.44720  Biso   1.000  H
  C190     1.0000 0.76720  0.81530  0.41170  Biso   1.000  C
  C191     1.0000 0.77270  0.85400  0.40790  Biso   1.000  C
  C192     1.0000 0.76810  0.87330  0.37710  Biso   1.000  C
  H77      1.0000 0.75780  0.86230  0.35710  Biso   1.000  H
  C193     1.0000 0.77820  0.90850  0.37510  Biso   1.000  C
  C194     1.0000 0.79350  0.92350  0.40490  Biso   1.000  C
  H78      1.0000 0.80080  0.94750  0.40400  Biso   1.000  H
  C195     1.0000 0.79870  0.90490  0.43610  Biso   1.000  C
  C196     1.0000 0.79200  0.86890  0.43760  Biso   1.000  C
  H79      1.0000 0.79640  0.85530  0.46030  Biso   1.000  H
  C197     1.0000 0.81170  0.92100  0.47080  Biso   1.000  C
  C198     1.0000 0.82550  0.95490  0.46990  Biso   1.000  C
  H80      1.0000 0.82260  0.96980  0.45010  Biso   1.000  H
  C199     1.0000 0.77180  0.93060  0.34250  Biso   1.000  C
  C200     1.0000 0.57790  0.77570  0.34050  Biso   1.000  C
  O90      1.0000 0.76790  0.73110  0.47190  Biso   1.000  O
  Gd11     1.0000 0.25577  0.75616  0.08863  Biso   1.000  Gd
  O91      1.0000 0.20110  0.75740  0.11720  Biso   1.000  O
  O92      1.0000 0.20170  0.74480  0.06090  Biso   1.000  O
  O93      1.0000 0.25920  0.70040  0.11660  Biso   1.000  O
  O94      1.0000 0.26640  0.70030  0.05990  Biso   1.000  O
  O95      1.0000 0.26130  0.58790  0.18140  Biso   1.000  O
  O96      1.0000 0.27700  0.53790  0.15760  Biso   1.000  O
  O97      1.0000 0.08690  0.74580  0.18140  Biso   1.000  O
  O98      1.0000 0.05770  0.70050  0.16500  Biso   1.000  O
  C201     1.0000 0.18310  0.74760  0.08880  Biso   1.000  C
  C202     1.0000 0.14440  0.73850  0.09060  Biso   1.000  C
  C203     1.0000 0.13360  0.71920  0.06090  Biso   1.000  C
  H81      1.0000 0.14830  0.71640  0.04080  Biso   1.000  H
  C204     1.0000 0.09980  0.70440  0.06250  Biso   1.000  C
  C205     1.0000 0.08090  0.70690  0.09400  Biso   1.000  C
  H82      1.0000 0.05910  0.69460  0.09540  Biso   1.000  H
  C206     1.0000 0.09160  0.72590  0.12380  Biso   1.000  C
  C207     1.0000 0.12510  0.74090  0.12170  Biso   1.000  C
  H83      1.0000 0.13470  0.75290  0.14150  Biso   1.000  H
  C208     1.0000 0.08580  0.68520  0.03060  Biso   1.000  C
  C209     1.0000 0.06580  0.65440  0.03160  Biso   1.000  C
  H84      1.0000 0.06260  0.64160  0.05280  Biso   1.000  H
  C210     1.0000 0.26720  0.68470  0.08830  Biso   1.000  C
  C211     1.0000 0.27270  0.64600  0.09210  Biso   1.000  C
  C212     1.0000 0.26810  0.62670  0.12290  Biso   1.000  C
  H85      1.0000 0.25780  0.63770  0.14290  Biso   1.000  H
  C213     1.0000 0.27820  0.59150  0.12490  Biso   1.000  C
  C214     1.0000 0.29350  0.57650  0.09510  Biso   1.000  C
  H86      1.0000 0.30080  0.55250  0.09600  Biso   1.000  H
  C215     1.0000 0.29870  0.59510  0.06390  Biso   1.000  C
  C216     1.0000 0.29200  0.63110  0.06240  Biso   1.000  C
  H87      1.0000 0.29640  0.64470  0.03970  Biso   1.000  H
  C217     1.0000 0.31170  0.57900  0.02920  Biso   1.000  C
  C218     1.0000 0.32550  0.54510  0.03010  Biso   1.000  C
  H88      1.0000 0.32260  0.53020  0.04990  Biso   1.000  H
  C219     1.0000 0.27180  0.56940  0.15750  Biso   1.000  C
  C220     1.0000 0.07790  0.72430  0.15950  Biso   1.000  C
  O99      1.0000 0.26790  0.76890  0.02810  Biso   1.000  O
  Gd12     1.0000 0.75577  0.25616  0.58863  Biso   1.000  Gd
  O100     1.0000 0.70110  0.25740  0.61720  Biso   1.000  O
  O101     1.0000 0.70170  0.24480  0.56090  Biso   1.000  O
  O102     1.0000 0.75920  0.20040  0.61660  Biso   1.000  O
  O103     1.0000 0.76640  0.20030  0.55990  Biso   1.000  O
  O104     1.0000 0.76130  0.08790  0.68140  Biso   1.000  O
  O105     1.0000 0.77700  0.03790  0.65760  Biso   1.000  O
  O106     1.0000 0.58690  0.24580  0.68140  Biso   1.000  O
  O107     1.0000 0.55770  0.20050  0.66500  Biso   1.000  O
  C221     1.0000 0.68310  0.24760  0.58880  Biso   1.000  C
  C222     1.0000 0.64440  0.23850  0.59060  Biso   1.000  C
  C223     1.0000 0.63360  0.21920  0.56090  Biso   1.000  C
  H89      1.0000 0.64830  0.21640  0.54080  Biso   1.000  H
  C224     1.0000 0.59980  0.20440  0.56250  Biso   1.000  C
  C225     1.0000 0.58090  0.20690  0.59400  Biso   1.000  C
  H90      1.0000 0.55910  0.19460  0.59540  Biso   1.000  H
  C226     1.0000 0.59160  0.22590  0.62380  Biso   1.000  C
  C227     1.0000 0.62510  0.24090  0.62170  Biso   1.000  C
  H91      1.0000 0.63470  0.25290  0.64150  Biso   1.000  H
  C228     1.0000 0.58580  0.18520  0.53060  Biso   1.000  C
  C229     1.0000 0.56580  0.15440  0.53160  Biso   1.000  C
  H92      1.0000 0.56260  0.14160  0.55280  Biso   1.000  H
  C230     1.0000 0.76720  0.18470  0.58830  Biso   1.000  C
  C231     1.0000 0.77270  0.14600  0.59210  Biso   1.000  C
  C232     1.0000 0.76810  0.12670  0.62290  Biso   1.000  C
  H93      1.0000 0.75780  0.13770  0.64290  Biso   1.000  H
  C233     1.0000 0.77820  0.09150  0.62490  Biso   1.000  C
  C234     1.0000 0.79350  0.07650  0.59510  Biso   1.000  C
  H94      1.0000 0.80080  0.05250  0.59600  Biso   1.000  H
  C235     1.0000 0.79870  0.09510  0.56390  Biso   1.000  C
  C236     1.0000 0.79200  0.13110  0.56240  Biso   1.000  C
  H95      1.0000 0.79640  0.14470  0.53970  Biso   1.000  H
  C237     1.0000 0.81170  0.07900  0.52920  Biso   1.000  C
  C238     1.0000 0.82550  0.04510  0.53010  Biso   1.000  C
  H96      1.0000 0.82260  0.03020  0.54990  Biso   1.000  H
  C239     1.0000 0.77180  0.06940  0.65750  Biso   1.000  C
  C240     1.0000 0.57790  0.22430  0.65950  Biso   1.000  C
  O108     1.0000 0.76790  0.26890  0.52810  Biso   1.000  O
  Gd13     1.0000 0.74423  0.75616  0.91137  Biso   1.000  Gd
  O109     1.0000 0.79890  0.75740  0.88280  Biso   1.000  O
  O110     1.0000 0.79830  0.74480  0.93910  Biso   1.000  O
  O111     1.0000 0.74080  0.70040  0.88340  Biso   1.000  O
  O112     1.0000 0.73360  0.70030  0.94010  Biso   1.000  O
  O113     1.0000 0.73870  0.58790  0.81860  Biso   1.000  O
  O114     1.0000 0.72300  0.53790  0.84240  Biso   1.000  O
  O115     1.0000 0.91310  0.74580  0.81860  Biso   1.000  O
  O116     1.0000 0.94230  0.70050  0.83500  Biso   1.000  O
  C241     1.0000 0.81690  0.74760  0.91120  Biso   1.000  C
  C242     1.0000 0.85560  0.73850  0.90940  Biso   1.000  C
  C243     1.0000 0.86640  0.71920  0.93910  Biso   1.000  C
  H97      1.0000 0.85170  0.71640  0.95920  Biso   1.000  H
  C244     1.0000 0.90020  0.70440  0.93750  Biso   1.000  C
  C245     1.0000 0.91910  0.70690  0.90600  Biso   1.000  C
  H98      1.0000 0.94090  0.69460  0.90460  Biso   1.000  H
  C246     1.0000 0.90840  0.72590  0.87620  Biso   1.000  C
  C247     1.0000 0.87490  0.74090  0.87830  Biso   1.000  C
  H99      1.0000 0.86530  0.75290  0.85850  Biso   1.000  H
  C248     1.0000 0.91420  0.68520  0.96940  Biso   1.000  C
  C249     1.0000 0.93420  0.65440  0.96840  Biso   1.000  C
  H100     1.0000 0.93740  0.64160  0.94720  Biso   1.000  H
  C250     1.0000 0.73280  0.68470  0.91170  Biso   1.000  C
  C251     1.0000 0.72730  0.64600  0.90790  Biso   1.000  C
  C252     1.0000 0.73190  0.62670  0.87710  Biso   1.000  C
  H101     1.0000 0.74220  0.63770  0.85710  Biso   1.000  H
  C253     1.0000 0.72180  0.59150  0.87510  Biso   1.000  C
  C254     1.0000 0.70650  0.57650  0.90490  Biso   1.000  C
  H102     1.0000 0.69920  0.55250  0.90400  Biso   1.000  H
  C255     1.0000 0.70130  0.59510  0.93610  Biso   1.000  C
  C256     1.0000 0.70800  0.63110  0.93760  Biso   1.000  C
  H103     1.0000 0.70360  0.64470  0.96030  Biso   1.000  H
  C257     1.0000 0.68830  0.57900  0.97080  Biso   1.000  C
  C258     1.0000 0.67450  0.54510  0.96990  Biso   1.000  C
  H104     1.0000 0.67740  0.53020  0.95010  Biso   1.000  H
  C259     1.0000 0.72820  0.56940  0.84250  Biso   1.000  C
  C260     1.0000 0.92210  0.72430  0.84050  Biso   1.000  C
  O117     1.0000 0.73210  0.76890  0.97190  Biso   1.000  O
  Gd14     1.0000 0.24423  0.25616  0.41137  Biso   1.000  Gd
  O118     1.0000 0.29890  0.25740  0.38280  Biso   1.000  O
  O119     1.0000 0.29830  0.24480  0.43910  Biso   1.000  O
  O120     1.0000 0.24080  0.20040  0.38340  Biso   1.000  O
  O121     1.0000 0.23360  0.20030  0.44010  Biso   1.000  O
  O122     1.0000 0.23870  0.08790  0.31860  Biso   1.000  O
  O123     1.0000 0.22300  0.03790  0.34240  Biso   1.000  O
  O124     1.0000 0.41310  0.24580  0.31860  Biso   1.000  O
  O125     1.0000 0.44230  0.20050  0.33500  Biso   1.000  O
  C261     1.0000 0.31690  0.24760  0.41120  Biso   1.000  C
  C262     1.0000 0.35560  0.23850  0.40940  Biso   1.000  C
  C263     1.0000 0.36640  0.21920  0.43910  Biso   1.000  C
  H105     1.0000 0.35170  0.21640  0.45920  Biso   1.000  H
  C264     1.0000 0.40020  0.20440  0.43750  Biso   1.000  C
  C265     1.0000 0.41910  0.20690  0.40600  Biso   1.000  C
  H106     1.0000 0.44090  0.19460  0.40460  Biso   1.000  H
  C266     1.0000 0.40840  0.22590  0.37620  Biso   1.000  C
  C267     1.0000 0.37490  0.24090  0.37830  Biso   1.000  C
  H107     1.0000 0.36530  0.25290  0.35850  Biso   1.000  H
  C268     1.0000 0.41420  0.18520  0.46940  Biso   1.000  C
  C269     1.0000 0.43420  0.15440  0.46840  Biso   1.000  C
  H108     1.0000 0.43740  0.14160  0.44720  Biso   1.000  H
  C270     1.0000 0.23280  0.18470  0.41170  Biso   1.000  C
  C271     1.0000 0.22730  0.14600  0.40790  Biso   1.000  C
  C272     1.0000 0.23190  0.12670  0.37710  Biso   1.000  C
  H109     1.0000 0.24220  0.13770  0.35710  Biso   1.000  H
  C273     1.0000 0.22180  0.09150  0.37510  Biso   1.000  C
  C274     1.0000 0.20650  0.07650  0.40490  Biso   1.000  C
  H110     1.0000 0.19920  0.05250  0.40400  Biso   1.000  H
  C275     1.0000 0.20130  0.09510  0.43610  Biso   1.000  C
  C276     1.0000 0.20800  0.13110  0.43760  Biso   1.000  C
  H111     1.0000 0.20360  0.14470  0.46030  Biso   1.000  H
  C277     1.0000 0.18830  0.07900  0.47080  Biso   1.000  C
  C278     1.0000 0.17450  0.04510  0.46990  Biso   1.000  C
  H112     1.0000 0.17740  0.03020  0.45010  Biso   1.000  H
  C279     1.0000 0.22820  0.06940  0.34250  Biso   1.000  C
  C280     1.0000 0.42210  0.22430  0.34050  Biso   1.000  C
  O126     1.0000 0.23210  0.26890  0.47190  Biso   1.000  O
  Gd15     1.0000 0.74423  0.24384  0.08863  Biso   1.000  Gd
  O127     1.0000 0.79890  0.24260  0.11720  Biso   1.000  O
  O128     1.0000 0.79830  0.25520  0.06090  Biso   1.000  O
  O129     1.0000 0.74080  0.29960  0.11660  Biso   1.000  O
  O130     1.0000 0.73360  0.29970  0.05990  Biso   1.000  O
  O131     1.0000 0.73870  0.41210  0.18140  Biso   1.000  O
  O132     1.0000 0.72300  0.46210  0.15760  Biso   1.000  O
  O133     1.0000 0.91310  0.25420  0.18140  Biso   1.000  O
  O134     1.0000 0.94230  0.29950  0.16500  Biso   1.000  O
  C281     1.0000 0.81690  0.25240  0.08880  Biso   1.000  C
  C282     1.0000 0.85560  0.26150  0.09060  Biso   1.000  C
  C283     1.0000 0.86640  0.28080  0.06090  Biso   1.000  C
  H113     1.0000 0.85170  0.28360  0.04080  Biso   1.000  H
  C284     1.0000 0.90020  0.29560  0.06250  Biso   1.000  C
  C285     1.0000 0.91910  0.29310  0.09400  Biso   1.000  C
  H114     1.0000 0.94090  0.30540  0.09540  Biso   1.000  H
  C286     1.0000 0.90840  0.27410  0.12380  Biso   1.000  C
  C287     1.0000 0.87490  0.25910  0.12170  Biso   1.000  C
  H115     1.0000 0.86530  0.24710  0.14150  Biso   1.000  H
  C288     1.0000 0.91420  0.31480  0.03060  Biso   1.000  C
  C289     1.0000 0.93420  0.34560  0.03160  Biso   1.000  C
  H116     1.0000 0.93740  0.35840  0.05280  Biso   1.000  H
  C290     1.0000 0.73280  0.31530  0.08830  Biso   1.000  C
  C291     1.0000 0.72730  0.35400  0.09210  Biso   1.000  C
  C292     1.0000 0.73190  0.37330  0.12290  Biso   1.000  C
  H117     1.0000 0.74220  0.36230  0.14290  Biso   1.000  H
  C293     1.0000 0.72180  0.40850  0.12490  Biso   1.000  C
  C294     1.0000 0.70650  0.42350  0.09510  Biso   1.000  C
  H118     1.0000 0.69920  0.44750  0.09600  Biso   1.000  H
  C295     1.0000 0.70130  0.40490  0.06390  Biso   1.000  C
  C296     1.0000 0.70800  0.36890  0.06240  Biso   1.000  C
  H119     1.0000 0.70360  0.35530  0.03970  Biso   1.000  H
  C297     1.0000 0.68830  0.42100  0.02920  Biso   1.000  C
  C298     1.0000 0.67450  0.45490  0.03010  Biso   1.000  C
  H120     1.0000 0.67740  0.46980  0.04990  Biso   1.000  H
  C299     1.0000 0.72820  0.43060  0.15750  Biso   1.000  C
  C300     1.0000 0.92210  0.27570  0.15950  Biso   1.000  C
  O135     1.0000 0.73210  0.23110  0.02810  Biso   1.000  O
  Gd16     1.0000 0.24423  0.74384  0.58863  Biso   1.000  Gd
  O136     1.0000 0.29890  0.74260  0.61720  Biso   1.000  O
  O137     1.0000 0.29830  0.75520  0.56090  Biso   1.000  O
  O138     1.0000 0.24080  0.79960  0.61660  Biso   1.000  O
  O139     1.0000 0.23360  0.79970  0.55990  Biso   1.000  O
  O140     1.0000 0.23870  0.91210  0.68140  Biso   1.000  O
  O141     1.0000 0.22300  0.96210  0.65760  Biso   1.000  O
  O142     1.0000 0.41310  0.75420  0.68140  Biso   1.000  O
  O143     1.0000 0.44230  0.79950  0.66500  Biso   1.000  O
  C301     1.0000 0.31690  0.75240  0.58880  Biso   1.000  C
  C302     1.0000 0.35560  0.76150  0.59060  Biso   1.000  C
  C303     1.0000 0.36640  0.78080  0.56090  Biso   1.000  C
  H121     1.0000 0.35170  0.78360  0.54080  Biso   1.000  H
  C304     1.0000 0.40020  0.79560  0.56250  Biso   1.000  C
  C305     1.0000 0.41910  0.79310  0.59400  Biso   1.000  C
  H122     1.0000 0.44090  0.80540  0.59540  Biso   1.000  H
  C306     1.0000 0.40840  0.77410  0.62380  Biso   1.000  C
  C307     1.0000 0.37490  0.75910  0.62170  Biso   1.000  C
  H123     1.0000 0.36530  0.74710  0.64150  Biso   1.000  H
  C308     1.0000 0.41420  0.81480  0.53060  Biso   1.000  C
  C309     1.0000 0.43420  0.84560  0.53160  Biso   1.000  C
  H124     1.0000 0.43740  0.85840  0.55280  Biso   1.000  H
  C310     1.0000 0.23280  0.81530  0.58830  Biso   1.000  C
  C311     1.0000 0.22730  0.85400  0.59210  Biso   1.000  C
  C312     1.0000 0.23190  0.87330  0.62290  Biso   1.000  C
  H125     1.0000 0.24220  0.86230  0.64290  Biso   1.000  H
  C313     1.0000 0.22180  0.90850  0.62490  Biso   1.000  C
  C314     1.0000 0.20650  0.92350  0.59510  Biso   1.000  C
  H126     1.0000 0.19920  0.94750  0.59600  Biso   1.000  H
  C315     1.0000 0.20130  0.90490  0.56390  Biso   1.000  C
  C316     1.0000 0.20800  0.86890  0.56240  Biso   1.000  C
  H127     1.0000 0.20360  0.85530  0.53970  Biso   1.000  H
  C317     1.0000 0.18830  0.92100  0.52920  Biso   1.000  C
  C318     1.0000 0.17450  0.95490  0.53010  Biso   1.000  C
  H128     1.0000 0.17740  0.96980  0.54990  Biso   1.000  H
  C319     1.0000 0.22820  0.93060  0.65750  Biso   1.000  C
  C320     1.0000 0.42210  0.77570  0.65950  Biso   1.000  C
  O144     1.0000 0.23210  0.73110  0.52810  Biso   1.000  O
  Gd17     1.0000 0.91137  0.25577  0.24384  Biso   1.000  Gd
  O145     1.0000 0.88280  0.20110  0.24260  Biso   1.000  O
  O146     1.0000 0.93910  0.20170  0.25520  Biso   1.000  O
  O147     1.0000 0.88340  0.25920  0.29960  Biso   1.000  O
  O148     1.0000 0.94010  0.26640  0.29970  Biso   1.000  O
  O149     1.0000 0.81860  0.26130  0.41210  Biso   1.000  O
  O150     1.0000 0.84240  0.27700  0.46210  Biso   1.000  O
  O151     1.0000 0.81860  0.08690  0.25420  Biso   1.000  O
  O152     1.0000 0.83500  0.05770  0.29950  Biso   1.000  O
  C321     1.0000 0.91120  0.18310  0.25240  Biso   1.000  C
  C322     1.0000 0.90940  0.14440  0.26150  Biso   1.000  C
  C323     1.0000 0.93910  0.13360  0.28080  Biso   1.000  C
  H129     1.0000 0.95920  0.14830  0.28360  Biso   1.000  H
  C324     1.0000 0.93750  0.09980  0.29560  Biso   1.000  C
  C325     1.0000 0.90600  0.08090  0.29310  Biso   1.000  C
  H130     1.0000 0.90460  0.05910  0.30540  Biso   1.000  H
  C326     1.0000 0.87620  0.09160  0.27410  Biso   1.000  C
  C327     1.0000 0.87830  0.12510  0.25910  Biso   1.000  C
  H131     1.0000 0.85850  0.13470  0.24710  Biso   1.000  H
  C328     1.0000 0.96940  0.08580  0.31480  Biso   1.000  C
  C329     1.0000 0.96840  0.06580  0.34560  Biso   1.000  C
  H132     1.0000 0.94720  0.06260  0.35840  Biso   1.000  H
  C330     1.0000 0.91170  0.26720  0.31530  Biso   1.000  C
  C331     1.0000 0.90790  0.27270  0.35400  Biso   1.000  C
  C332     1.0000 0.87710  0.26810  0.37330  Biso   1.000  C
  H133     1.0000 0.85710  0.25780  0.36230  Biso   1.000  H
  C333     1.0000 0.87510  0.27820  0.40850  Biso   1.000  C
  C334     1.0000 0.90490  0.29350  0.42350  Biso   1.000  C
  H134     1.0000 0.90400  0.30080  0.44750  Biso   1.000  H
  C335     1.0000 0.93610  0.29870  0.40490  Biso   1.000  C
  C336     1.0000 0.93760  0.29200  0.36890  Biso   1.000  C
  H135     1.0000 0.96030  0.29640  0.35530  Biso   1.000  H
  C337     1.0000 0.97080  0.31170  0.42100  Biso   1.000  C
  C338     1.0000 0.96990  0.32550  0.45490  Biso   1.000  C
  H136     1.0000 0.95010  0.32260  0.46980  Biso   1.000  H
  C339     1.0000 0.84250  0.27180  0.43060  Biso   1.000  C
  C340     1.0000 0.84050  0.07790  0.27570  Biso   1.000  C
  O153     1.0000 0.97190  0.26790  0.23110  Biso   1.000  O
  Gd18     1.0000 0.41137  0.75577  0.74384  Biso   1.000  Gd
  O154     1.0000 0.38280  0.70110  0.74260  Biso   1.000  O
  O155     1.0000 0.43910  0.70170  0.75520  Biso   1.000  O
  O156     1.0000 0.38340  0.75920  0.79960  Biso   1.000  O
  O157     1.0000 0.44010  0.76640  0.79970  Biso   1.000  O
  O158     1.0000 0.31860  0.76130  0.91210  Biso   1.000  O
  O159     1.0000 0.34240  0.77700  0.96210  Biso   1.000  O
  O160     1.0000 0.31860  0.58690  0.75420  Biso   1.000  O
  O161     1.0000 0.33500  0.55770  0.79950  Biso   1.000  O
  C341     1.0000 0.41120  0.68310  0.75240  Biso   1.000  C
  C342     1.0000 0.40940  0.64440  0.76150  Biso   1.000  C
  C343     1.0000 0.43910  0.63360  0.78080  Biso   1.000  C
  H137     1.0000 0.45920  0.64830  0.78360  Biso   1.000  H
  C344     1.0000 0.43750  0.59980  0.79560  Biso   1.000  C
  C345     1.0000 0.40600  0.58090  0.79310  Biso   1.000  C
  H138     1.0000 0.40460  0.55910  0.80540  Biso   1.000  H
  C346     1.0000 0.37620  0.59160  0.77410  Biso   1.000  C
  C347     1.0000 0.37830  0.62510  0.75910  Biso   1.000  C
  H139     1.0000 0.35850  0.63470  0.74710  Biso   1.000  H
  C348     1.0000 0.46940  0.58580  0.81480  Biso   1.000  C
  C349     1.0000 0.46840  0.56580  0.84560  Biso   1.000  C
  H140     1.0000 0.44720  0.56260  0.85840  Biso   1.000  H
  C350     1.0000 0.41170  0.76720  0.81530  Biso   1.000  C
  C351     1.0000 0.40790  0.77270  0.85400  Biso   1.000  C
  C352     1.0000 0.37710  0.76810  0.87330  Biso   1.000  C
  H141     1.0000 0.35710  0.75780  0.86230  Biso   1.000  H
  C353     1.0000 0.37510  0.77820  0.90850  Biso   1.000  C
  C354     1.0000 0.40490  0.79350  0.92350  Biso   1.000  C
  H142     1.0000 0.40400  0.80080  0.94750  Biso   1.000  H
  C355     1.0000 0.43610  0.79870  0.90490  Biso   1.000  C
  C356     1.0000 0.43760  0.79200  0.86890  Biso   1.000  C
  H143     1.0000 0.46030  0.79640  0.85530  Biso   1.000  H
  C357     1.0000 0.47080  0.81170  0.92100  Biso   1.000  C
  C358     1.0000 0.46990  0.82550  0.95490  Biso   1.000  C
  H144     1.0000 0.45010  0.82260  0.96980  Biso   1.000  H
  C359     1.0000 0.34250  0.77180  0.93060  Biso   1.000  C
  C360     1.0000 0.34050  0.57790  0.77570  Biso   1.000  C
  O162     1.0000 0.47190  0.76790  0.73110  Biso   1.000  O
  Gd19     1.0000 0.08863  0.25577  0.75616  Biso   1.000  Gd
  O163     1.0000 0.11720  0.20110  0.75740  Biso   1.000  O
  O164     1.0000 0.06090  0.20170  0.74480  Biso   1.000  O
  O165     1.0000 0.11660  0.25920  0.70040  Biso   1.000  O
  O166     1.0000 0.05990  0.26640  0.70030  Biso   1.000  O
  O167     1.0000 0.18140  0.26130  0.58790  Biso   1.000  O
  O168     1.0000 0.15760  0.27700  0.53790  Biso   1.000  O
  O169     1.0000 0.18140  0.08690  0.74580  Biso   1.000  O
  O170     1.0000 0.16500  0.05770  0.70050  Biso   1.000  O
  C361     1.0000 0.08880  0.18310  0.74760  Biso   1.000  C
  C362     1.0000 0.09060  0.14440  0.73850  Biso   1.000  C
  C363     1.0000 0.06090  0.13360  0.71920  Biso   1.000  C
  H145     1.0000 0.04080  0.14830  0.71640  Biso   1.000  H
  C364     1.0000 0.06250  0.09980  0.70440  Biso   1.000  C
  C365     1.0000 0.09400  0.08090  0.70690  Biso   1.000  C
  H146     1.0000 0.09540  0.05910  0.69460  Biso   1.000  H
  C366     1.0000 0.12380  0.09160  0.72590  Biso   1.000  C
  C367     1.0000 0.12170  0.12510  0.74090  Biso   1.000  C
  H147     1.0000 0.14150  0.13470  0.75290  Biso   1.000  H
  C368     1.0000 0.03060  0.08580  0.68520  Biso   1.000  C
  C369     1.0000 0.03160  0.06580  0.65440  Biso   1.000  C
  H148     1.0000 0.05280  0.06260  0.64160  Biso   1.000  H
  C370     1.0000 0.08830  0.26720  0.68470  Biso   1.000  C
  C371     1.0000 0.09210  0.27270  0.64600  Biso   1.000  C
  C372     1.0000 0.12290  0.26810  0.62670  Biso   1.000  C
  H149     1.0000 0.14290  0.25780  0.63770  Biso   1.000  H
  C373     1.0000 0.12490  0.27820  0.59150  Biso   1.000  C
  C374     1.0000 0.09510  0.29350  0.57650  Biso   1.000  C
  H150     1.0000 0.09600  0.30080  0.55250  Biso   1.000  H
  C375     1.0000 0.06390  0.29870  0.59510  Biso   1.000  C
  C376     1.0000 0.06240  0.29200  0.63110  Biso   1.000  C
  H151     1.0000 0.03970  0.29640  0.64470  Biso   1.000  H
  C377     1.0000 0.02920  0.31170  0.57900  Biso   1.000  C
  C378     1.0000 0.03010  0.32550  0.54510  Biso   1.000  C
  H152     1.0000 0.04990  0.32260  0.53020  Biso   1.000  H
  C379     1.0000 0.15750  0.27180  0.56940  Biso   1.000  C
  C380     1.0000 0.15950  0.07790  0.72430  Biso   1.000  C
  O171     1.0000 0.02810  0.26790  0.76890  Biso   1.000  O
  Gd20     1.0000 0.58863  0.75577  0.25616  Biso   1.000  Gd
  O172     1.0000 0.61720  0.70110  0.25740  Biso   1.000  O
  O173     1.0000 0.56090  0.70170  0.24480  Biso   1.000  O
  O174     1.0000 0.61660  0.75920  0.20040  Biso   1.000  O
  O175     1.0000 0.55990  0.76640  0.20030  Biso   1.000  O
  O176     1.0000 0.68140  0.76130  0.08790  Biso   1.000  O
  O177     1.0000 0.65760  0.77700  0.03790  Biso   1.000  O
  O178     1.0000 0.68140  0.58690  0.24580  Biso   1.000  O
  O179     1.0000 0.66500  0.55770  0.20050  Biso   1.000  O
  C381     1.0000 0.58880  0.68310  0.24760  Biso   1.000  C
  C382     1.0000 0.59060  0.64440  0.23850  Biso   1.000  C
  C383     1.0000 0.56090  0.63360  0.21920  Biso   1.000  C
  H153     1.0000 0.54080  0.64830  0.21640  Biso   1.000  H
  C384     1.0000 0.56250  0.59980  0.20440  Biso   1.000  C
  C385     1.0000 0.59400  0.58090  0.20690  Biso   1.000  C
  H154     1.0000 0.59540  0.55910  0.19460  Biso   1.000  H
  C386     1.0000 0.62380  0.59160  0.22590  Biso   1.000  C
  C387     1.0000 0.62170  0.62510  0.24090  Biso   1.000  C
  H155     1.0000 0.64150  0.63470  0.25290  Biso   1.000  H
  C388     1.0000 0.53060  0.58580  0.18520  Biso   1.000  C
  C389     1.0000 0.53160  0.56580  0.15440  Biso   1.000  C
  H156     1.0000 0.55280  0.56260  0.14160  Biso   1.000  H
  C390     1.0000 0.58830  0.76720  0.18470  Biso   1.000  C
  C391     1.0000 0.59210  0.77270  0.14600  Biso   1.000  C
  C392     1.0000 0.62290  0.76810  0.12670  Biso   1.000  C
  H157     1.0000 0.64290  0.75780  0.13770  Biso   1.000  H
  C393     1.0000 0.62490  0.77820  0.09150  Biso   1.000  C
  C394     1.0000 0.59510  0.79350  0.07650  Biso   1.000  C
  H158     1.0000 0.59600  0.80080  0.05250  Biso   1.000  H
  C395     1.0000 0.56390  0.79870  0.09510  Biso   1.000  C
  C396     1.0000 0.56240  0.79200  0.13110  Biso   1.000  C
  H159     1.0000 0.53970  0.79640  0.14470  Biso   1.000  H
  C397     1.0000 0.52920  0.81170  0.07900  Biso   1.000  C
  C398     1.0000 0.53010  0.82550  0.04510  Biso   1.000  C
  H160     1.0000 0.54990  0.82260  0.03020  Biso   1.000  H
  C399     1.0000 0.65750  0.77180  0.06940  Biso   1.000  C
  C400     1.0000 0.65950  0.57790  0.22430  Biso   1.000  C
  O180     1.0000 0.52810  0.76790  0.26890  Biso   1.000  O
  Gd21     1.0000 0.91137  0.74423  0.75616  Biso   1.000  Gd
  O181     1.0000 0.88280  0.79890  0.75740  Biso   1.000  O
  O182     1.0000 0.93910  0.79830  0.74480  Biso   1.000  O
  O183     1.0000 0.88340  0.74080  0.70040  Biso   1.000  O
  O184     1.0000 0.94010  0.73360  0.70030  Biso   1.000  O
  O185     1.0000 0.81860  0.73870  0.58790  Biso   1.000  O
  O186     1.0000 0.84240  0.72300  0.53790  Biso   1.000  O
  O187     1.0000 0.81860  0.91310  0.74580  Biso   1.000  O
  O188     1.0000 0.83500  0.94230  0.70050  Biso   1.000  O
  C401     1.0000 0.91120  0.81690  0.74760  Biso   1.000  C
  C402     1.0000 0.90940  0.85560  0.73850  Biso   1.000  C
  C403     1.0000 0.93910  0.86640  0.71920  Biso   1.000  C
  H161     1.0000 0.95920  0.85170  0.71640  Biso   1.000  H
  C404     1.0000 0.93750  0.90020  0.70440  Biso   1.000  C
  C405     1.0000 0.90600  0.91910  0.70690  Biso   1.000  C
  H162     1.0000 0.90460  0.94090  0.69460  Biso   1.000  H
  C406     1.0000 0.87620  0.90840  0.72590  Biso   1.000  C
  C407     1.0000 0.87830  0.87490  0.74090  Biso   1.000  C
  H163     1.0000 0.85850  0.86530  0.75290  Biso   1.000  H
  C408     1.0000 0.96940  0.91420  0.68520  Biso   1.000  C
  C409     1.0000 0.96840  0.93420  0.65440  Biso   1.000  C
  H164     1.0000 0.94720  0.93740  0.64160  Biso   1.000  H
  C410     1.0000 0.91170  0.73280  0.68470  Biso   1.000  C
  C411     1.0000 0.90790  0.72730  0.64600  Biso   1.000  C
  C412     1.0000 0.87710  0.73190  0.62670  Biso   1.000  C
  H165     1.0000 0.85710  0.74220  0.63770  Biso   1.000  H
  C413     1.0000 0.87510  0.72180  0.59150  Biso   1.000  C
  C414     1.0000 0.90490  0.70650  0.57650  Biso   1.000  C
  H166     1.0000 0.90400  0.69920  0.55250  Biso   1.000  H
  C415     1.0000 0.93610  0.70130  0.59510  Biso   1.000  C
  C416     1.0000 0.93760  0.70800  0.63110  Biso   1.000  C
  H167     1.0000 0.96030  0.70360  0.64470  Biso   1.000  H
  C417     1.0000 0.97080  0.68830  0.57900  Biso   1.000  C
  C418     1.0000 0.96990  0.67450  0.54510  Biso   1.000  C
  H168     1.0000 0.95010  0.67740  0.53020  Biso   1.000  H
  C419     1.0000 0.84250  0.72820  0.56940  Biso   1.000  C
  C420     1.0000 0.84050  0.92210  0.72430  Biso   1.000  C
  O189     1.0000 0.97190  0.73210  0.76890  Biso   1.000  O
  Gd22     1.0000 0.41137  0.24423  0.25616  Biso   1.000  Gd
  O190     1.0000 0.38280  0.29890  0.25740  Biso   1.000  O
  O191     1.0000 0.43910  0.29830  0.24480  Biso   1.000  O
  O192     1.0000 0.38340  0.24080  0.20040  Biso   1.000  O
  O193     1.0000 0.44010  0.23360  0.20030  Biso   1.000  O
  O194     1.0000 0.31860  0.23870  0.08790  Biso   1.000  O
  O195     1.0000 0.34240  0.22300  0.03790  Biso   1.000  O
  O196     1.0000 0.31860  0.41310  0.24580  Biso   1.000  O
  O197     1.0000 0.33500  0.44230  0.20050  Biso   1.000  O
  C421     1.0000 0.41120  0.31690  0.24760  Biso   1.000  C
  C422     1.0000 0.40940  0.35560  0.23850  Biso   1.000  C
  C423     1.0000 0.43910  0.36640  0.21920  Biso   1.000  C
  H169     1.0000 0.45920  0.35170  0.21640  Biso   1.000  H
  C424     1.0000 0.43750  0.40020  0.20440  Biso   1.000  C
  C425     1.0000 0.40600  0.41910  0.20690  Biso   1.000  C
  H170     1.0000 0.40460  0.44090  0.19460  Biso   1.000  H
  C426     1.0000 0.37620  0.40840  0.22590  Biso   1.000  C
  C427     1.0000 0.37830  0.37490  0.24090  Biso   1.000  C
  H171     1.0000 0.35850  0.36530  0.25290  Biso   1.000  H
  C428     1.0000 0.46940  0.41420  0.18520  Biso   1.000  C
  C429     1.0000 0.46840  0.43420  0.15440  Biso   1.000  C
  H172     1.0000 0.44720  0.43740  0.14160  Biso   1.000  H
  C430     1.0000 0.41170  0.23280  0.18470  Biso   1.000  C
  C431     1.0000 0.40790  0.22730  0.14600  Biso   1.000  C
  C432     1.0000 0.37710  0.23190  0.12670  Biso   1.000  C
  H173     1.0000 0.35710  0.24220  0.13770  Biso   1.000  H
  C433     1.0000 0.37510  0.22180  0.09150  Biso   1.000  C
  C434     1.0000 0.40490  0.20650  0.07650  Biso   1.000  C
  H174     1.0000 0.40400  0.19920  0.05250  Biso   1.000  H
  C435     1.0000 0.43610  0.20130  0.09510  Biso   1.000  C
  C436     1.0000 0.43760  0.20800  0.13110  Biso   1.000  C
  H175     1.0000 0.46030  0.20360  0.14470  Biso   1.000  H
  C437     1.0000 0.47080  0.18830  0.07900  Biso   1.000  C
  C438     1.0000 0.46990  0.17450  0.04510  Biso   1.000  C
  H176     1.0000 0.45010  0.17740  0.03020  Biso   1.000  H
  C439     1.0000 0.34250  0.22820  0.06940  Biso   1.000  C
  C440     1.0000 0.34050  0.42210  0.22430  Biso   1.000  C
  O198     1.0000 0.47190  0.23210  0.26890  Biso   1.000  O
  Gd23     1.0000 0.08863  0.74423  0.24384  Biso   1.000  Gd
  O199     1.0000 0.11720  0.79890  0.24260  Biso   1.000  O
  O200     1.0000 0.06090  0.79830  0.25520  Biso   1.000  O
  O201     1.0000 0.11660  0.74080  0.29960  Biso   1.000  O
  O202     1.0000 0.05990  0.73360  0.29970  Biso   1.000  O
  O203     1.0000 0.18140  0.73870  0.41210  Biso   1.000  O
  O204     1.0000 0.15760  0.72300  0.46210  Biso   1.000  O
  O205     1.0000 0.18140  0.91310  0.25420  Biso   1.000  O
  O206     1.0000 0.16500  0.94230  0.29950  Biso   1.000  O
  C441     1.0000 0.08880  0.81690  0.25240  Biso   1.000  C
  C442     1.0000 0.09060  0.85560  0.26150  Biso   1.000  C
  C443     1.0000 0.06090  0.86640  0.28080  Biso   1.000  C
  H177     1.0000 0.04080  0.85170  0.28360  Biso   1.000  H
  C444     1.0000 0.06250  0.90020  0.29560  Biso   1.000  C
  C445     1.0000 0.09400  0.91910  0.29310  Biso   1.000  C
  H178     1.0000 0.09540  0.94090  0.30540  Biso   1.000  H
  C446     1.0000 0.12380  0.90840  0.27410  Biso   1.000  C
  C447     1.0000 0.12170  0.87490  0.25910  Biso   1.000  C
  H179     1.0000 0.14150  0.86530  0.24710  Biso   1.000  H
  C448     1.0000 0.03060  0.91420  0.31480  Biso   1.000  C
  C449     1.0000 0.03160  0.93420  0.34560  Biso   1.000  C
  H180     1.0000 0.05280  0.93740  0.35840  Biso   1.000  H
  C450     1.0000 0.08830  0.73280  0.31530  Biso   1.000  C
  C451     1.0000 0.09210  0.72730  0.35400  Biso   1.000  C
  C452     1.0000 0.12290  0.73190  0.37330  Biso   1.000  C
  H181     1.0000 0.14290  0.74220  0.36230  Biso   1.000  H
  C453     1.0000 0.12490  0.72180  0.40850  Biso   1.000  C
  C454     1.0000 0.09510  0.70650  0.42350  Biso   1.000  C
  H182     1.0000 0.09600  0.69920  0.44750  Biso   1.000  H
  C455     1.0000 0.06390  0.70130  0.40490  Biso   1.000  C
  C456     1.0000 0.06240  0.70800  0.36890  Biso   1.000  C
  H183     1.0000 0.03970  0.70360  0.35530  Biso   1.000  H
  C457     1.0000 0.02920  0.68830  0.42100  Biso   1.000  C
  C458     1.0000 0.03010  0.67450  0.45490  Biso   1.000  C
  H184     1.0000 0.04990  0.67740  0.46980  Biso   1.000  H
  C459     1.0000 0.15750  0.72820  0.43060  Biso   1.000  C
  C460     1.0000 0.15950  0.92210  0.27570  Biso   1.000  C
  O207     1.0000 0.02810  0.73210  0.23110  Biso   1.000  O
  Gd24     1.0000 0.58863  0.24423  0.74384  Biso   1.000  Gd
  O208     1.0000 0.61720  0.29890  0.74260  Biso   1.000  O
  O209     1.0000 0.56090  0.29830  0.75520  Biso   1.000  O
  O210     1.0000 0.61660  0.24080  0.79960  Biso   1.000  O
  O211     1.0000 0.55990  0.23360  0.79970  Biso   1.000  O
  O212     1.0000 0.68140  0.23870  0.91210  Biso   1.000  O
  O213     1.0000 0.65760  0.22300  0.96210  Biso   1.000  O
  O214     1.0000 0.68140  0.41310  0.75420  Biso   1.000  O
  O215     1.0000 0.66500  0.44230  0.79950  Biso   1.000  O
  C461     1.0000 0.58880  0.31690  0.75240  Biso   1.000  C
  C462     1.0000 0.59060  0.35560  0.76150  Biso   1.000  C
  C463     1.0000 0.56090  0.36640  0.78080  Biso   1.000  C
  H185     1.0000 0.54080  0.35170  0.78360  Biso   1.000  H
  C464     1.0000 0.56250  0.40020  0.79560  Biso   1.000  C
  C465     1.0000 0.59400  0.41910  0.79310  Biso   1.000  C
  H186     1.0000 0.59540  0.44090  0.80540  Biso   1.000  H
  C466     1.0000 0.62380  0.40840  0.77410  Biso   1.000  C
  C467     1.0000 0.62170  0.37490  0.75910  Biso   1.000  C
  H187     1.0000 0.64150  0.36530  0.74710  Biso   1.000  H
  C468     1.0000 0.53060  0.41420  0.81480  Biso   1.000  C
  C469     1.0000 0.53160  0.43420  0.84560  Biso   1.000  C
  H188     1.0000 0.55280  0.43740  0.85840  Biso   1.000  H
  C470     1.0000 0.58830  0.23280  0.81530  Biso   1.000  C
  C471     1.0000 0.59210  0.22730  0.85400  Biso   1.000  C
  C472     1.0000 0.62290  0.23190  0.87330  Biso   1.000  C
  H189     1.0000 0.64290  0.24220  0.86230  Biso   1.000  H
  C473     1.0000 0.62490  0.22180  0.90850  Biso   1.000  C
  C474     1.0000 0.59510  0.20650  0.92350  Biso   1.000  C
  H190     1.0000 0.59600  0.19920  0.94750  Biso   1.000  H
  C475     1.0000 0.56390  0.20130  0.90490  Biso   1.000  C
  C476     1.0000 0.56240  0.20800  0.86890  Biso   1.000  C
  H191     1.0000 0.53970  0.20360  0.85530  Biso   1.000  H
  C477     1.0000 0.52920  0.18830  0.92100  Biso   1.000  C
  C478     1.0000 0.53010  0.17450  0.95490  Biso   1.000  C
  H192     1.0000 0.54990  0.17740  0.96980  Biso   1.000  H
  C479     1.0000 0.65750  0.22820  0.93060  Biso   1.000  C
  C480     1.0000 0.65950  0.42210  0.77570  Biso   1.000  C
  O216     1.0000 0.52810  0.23210  0.73110  Biso   1.000  O
  Gd25     1.0000 0.75616  0.08863  0.74423  Biso   1.000  Gd
  O217     1.0000 0.75740  0.11720  0.79890  Biso   1.000  O
  O218     1.0000 0.74480  0.06090  0.79830  Biso   1.000  O
  O219     1.0000 0.70040  0.11660  0.74080  Biso   1.000  O
  O220     1.0000 0.70030  0.05990  0.73360  Biso   1.000  O
  O221     1.0000 0.58790  0.18140  0.73870  Biso   1.000  O
  O222     1.0000 0.53790  0.15760  0.72300  Biso   1.000  O
  O223     1.0000 0.74580  0.18140  0.91310  Biso   1.000  O
  O224     1.0000 0.70050  0.16500  0.94230  Biso   1.000  O
  C481     1.0000 0.74760  0.08880  0.81690  Biso   1.000  C
  C482     1.0000 0.73850  0.09060  0.85560  Biso   1.000  C
  C483     1.0000 0.71920  0.06090  0.86640  Biso   1.000  C
  H193     1.0000 0.71640  0.04080  0.85170  Biso   1.000  H
  C484     1.0000 0.70440  0.06250  0.90020  Biso   1.000  C
  C485     1.0000 0.70690  0.09400  0.91910  Biso   1.000  C
  H194     1.0000 0.69460  0.09540  0.94090  Biso   1.000  H
  C486     1.0000 0.72590  0.12380  0.90840  Biso   1.000  C
  C487     1.0000 0.74090  0.12170  0.87490  Biso   1.000  C
  H195     1.0000 0.75290  0.14150  0.86530  Biso   1.000  H
  C488     1.0000 0.68520  0.03060  0.91420  Biso   1.000  C
  C489     1.0000 0.65440  0.03160  0.93420  Biso   1.000  C
  H196     1.0000 0.64160  0.05280  0.93740  Biso   1.000  H
  C490     1.0000 0.68470  0.08830  0.73280  Biso   1.000  C
  C491     1.0000 0.64600  0.09210  0.72730  Biso   1.000  C
  C492     1.0000 0.62670  0.12290  0.73190  Biso   1.000  C
  H197     1.0000 0.63770  0.14290  0.74220  Biso   1.000  H
  C493     1.0000 0.59150  0.12490  0.72180  Biso   1.000  C
  C494     1.0000 0.57650  0.09510  0.70650  Biso   1.000  C
  H198     1.0000 0.55250  0.09600  0.69920  Biso   1.000  H
  C495     1.0000 0.59510  0.06390  0.70130  Biso   1.000  C
  C496     1.0000 0.63110  0.06240  0.70800  Biso   1.000  C
  H199     1.0000 0.64470  0.03970  0.70360  Biso   1.000  H
  C497     1.0000 0.57900  0.02920  0.68830  Biso   1.000  C
  C498     1.0000 0.54510  0.03010  0.67450  Biso   1.000  C
  H200     1.0000 0.53020  0.04990  0.67740  Biso   1.000  H
  C499     1.0000 0.56940  0.15750  0.72820  Biso   1.000  C
  C500     1.0000 0.72430  0.15950  0.92210  Biso   1.000  C
  O225     1.0000 0.76890  0.02810  0.73210  Biso   1.000  O
  Gd26     1.0000 0.25616  0.58863  0.24423  Biso   1.000  Gd
  O226     1.0000 0.25740  0.61720  0.29890  Biso   1.000  O
  O227     1.0000 0.24480  0.56090  0.29830  Biso   1.000  O
  O228     1.0000 0.20040  0.61660  0.24080  Biso   1.000  O
  O229     1.0000 0.20030  0.55990  0.23360  Biso   1.000  O
  O230     1.0000 0.08790  0.68140  0.23870  Biso   1.000  O
  O231     1.0000 0.03790  0.65760  0.22300  Biso   1.000  O
  O232     1.0000 0.24580  0.68140  0.41310  Biso   1.000  O
  O233     1.0000 0.20050  0.66500  0.44230  Biso   1.000  O
  C501     1.0000 0.24760  0.58880  0.31690  Biso   1.000  C
  C502     1.0000 0.23850  0.59060  0.35560  Biso   1.000  C
  C503     1.0000 0.21920  0.56090  0.36640  Biso   1.000  C
  H201     1.0000 0.21640  0.54080  0.35170  Biso   1.000  H
  C504     1.0000 0.20440  0.56250  0.40020  Biso   1.000  C
  C505     1.0000 0.20690  0.59400  0.41910  Biso   1.000  C
  H202     1.0000 0.19460  0.59540  0.44090  Biso   1.000  H
  C506     1.0000 0.22590  0.62380  0.40840  Biso   1.000  C
  C507     1.0000 0.24090  0.62170  0.37490  Biso   1.000  C
  H203     1.0000 0.25290  0.64150  0.36530  Biso   1.000  H
  C508     1.0000 0.18520  0.53060  0.41420  Biso   1.000  C
  C509     1.0000 0.15440  0.53160  0.43420  Biso   1.000  C
  H204     1.0000 0.14160  0.55280  0.43740  Biso   1.000  H
  C510     1.0000 0.18470  0.58830  0.23280  Biso   1.000  C
  C511     1.0000 0.14600  0.59210  0.22730  Biso   1.000  C
  C512     1.0000 0.12670  0.62290  0.23190  Biso   1.000  C
  H205     1.0000 0.13770  0.64290  0.24220  Biso   1.000  H
  C513     1.0000 0.09150  0.62490  0.22180  Biso   1.000  C
  C514     1.0000 0.07650  0.59510  0.20650  Biso   1.000  C
  H206     1.0000 0.05250  0.59600  0.19920  Biso   1.000  H
  C515     1.0000 0.09510  0.56390  0.20130  Biso   1.000  C
  C516     1.0000 0.13110  0.56240  0.20800  Biso   1.000  C
  H207     1.0000 0.14470  0.53970  0.20360  Biso   1.000  H
  C517     1.0000 0.07900  0.52920  0.18830  Biso   1.000  C
  C518     1.0000 0.04510  0.53010  0.17450  Biso   1.000  C
  H208     1.0000 0.03020  0.54990  0.17740  Biso   1.000  H
  C519     1.0000 0.06940  0.65750  0.22820  Biso   1.000  C
  C520     1.0000 0.22430  0.65950  0.42210  Biso   1.000  C
  O234     1.0000 0.26890  0.52810  0.23210  Biso   1.000  O
  Gd27     1.0000 0.24384  0.91137  0.74423  Biso   1.000  Gd
  O235     1.0000 0.24260  0.88280  0.79890  Biso   1.000  O
  O236     1.0000 0.25520  0.93910  0.79830  Biso   1.000  O
  O237     1.0000 0.29960  0.88340  0.74080  Biso   1.000  O
  O238     1.0000 0.29970  0.94010  0.73360  Biso   1.000  O
  O239     1.0000 0.41210  0.81860  0.73870  Biso   1.000  O
  O240     1.0000 0.46210  0.84240  0.72300  Biso   1.000  O
  O241     1.0000 0.25420  0.81860  0.91310  Biso   1.000  O
  O242     1.0000 0.29950  0.83500  0.94230  Biso   1.000  O
  C521     1.0000 0.25240  0.91120  0.81690  Biso   1.000  C
  C522     1.0000 0.26150  0.90940  0.85560  Biso   1.000  C
  C523     1.0000 0.28080  0.93910  0.86640  Biso   1.000  C
  H209     1.0000 0.28360  0.95920  0.85170  Biso   1.000  H
  C524     1.0000 0.29560  0.93750  0.90020  Biso   1.000  C
  C525     1.0000 0.29310  0.90600  0.91910  Biso   1.000  C
  H210     1.0000 0.30540  0.90460  0.94090  Biso   1.000  H
  C526     1.0000 0.27410  0.87620  0.90840  Biso   1.000  C
  C527     1.0000 0.25910  0.87830  0.87490  Biso   1.000  C
  H211     1.0000 0.24710  0.85850  0.86530  Biso   1.000  H
  C528     1.0000 0.31480  0.96940  0.91420  Biso   1.000  C
  C529     1.0000 0.34560  0.96840  0.93420  Biso   1.000  C
  H212     1.0000 0.35840  0.94720  0.93740  Biso   1.000  H
  C530     1.0000 0.31530  0.91170  0.73280  Biso   1.000  C
  C531     1.0000 0.35400  0.90790  0.72730  Biso   1.000  C
  C532     1.0000 0.37330  0.87710  0.73190  Biso   1.000  C
  H213     1.0000 0.36230  0.85710  0.74220  Biso   1.000  H
  C533     1.0000 0.40850  0.87510  0.72180  Biso   1.000  C
  C534     1.0000 0.42350  0.90490  0.70650  Biso   1.000  C
  H214     1.0000 0.44750  0.90400  0.69920  Biso   1.000  H
  C535     1.0000 0.40490  0.93610  0.70130  Biso   1.000  C
  C536     1.0000 0.36890  0.93760  0.70800  Biso   1.000  C
  H215     1.0000 0.35530  0.96030  0.70360  Biso   1.000  H
  C537     1.0000 0.42100  0.97080  0.68830  Biso   1.000  C
  C538     1.0000 0.45490  0.96990  0.67450  Biso   1.000  C
  H216     1.0000 0.46980  0.95010  0.67740  Biso   1.000  H
  C539     1.0000 0.43060  0.84250  0.72820  Biso   1.000  C
  C540     1.0000 0.27570  0.84050  0.92210  Biso   1.000  C
  O243     1.0000 0.23110  0.97190  0.73210  Biso   1.000  O
  Gd28     1.0000 0.74384  0.41137  0.24423  Biso   1.000  Gd
  O244     1.0000 0.74260  0.38280  0.29890  Biso   1.000  O
  O245     1.0000 0.75520  0.43910  0.29830  Biso   1.000  O
  O246     1.0000 0.79960  0.38340  0.24080  Biso   1.000  O
  O247     1.0000 0.79970  0.44010  0.23360  Biso   1.000  O
  O248     1.0000 0.91210  0.31860  0.23870  Biso   1.000  O
  O249     1.0000 0.96210  0.34240  0.22300  Biso   1.000  O
  O250     1.0000 0.75420  0.31860  0.41310  Biso   1.000  O
  O251     1.0000 0.79950  0.33500  0.44230  Biso   1.000  O
  C541     1.0000 0.75240  0.41120  0.31690  Biso   1.000  C
  C542     1.0000 0.76150  0.40940  0.35560  Biso   1.000  C
  C543     1.0000 0.78080  0.43910  0.36640  Biso   1.000  C
  H217     1.0000 0.78360  0.45920  0.35170  Biso   1.000  H
  C544     1.0000 0.79560  0.43750  0.40020  Biso   1.000  C
  C545     1.0000 0.79310  0.40600  0.41910  Biso   1.000  C
  H218     1.0000 0.80540  0.40460  0.44090  Biso   1.000  H
  C546     1.0000 0.77410  0.37620  0.40840  Biso   1.000  C
  C547     1.0000 0.75910  0.37830  0.37490  Biso   1.000  C
  H219     1.0000 0.74710  0.35850  0.36530  Biso   1.000  H
  C548     1.0000 0.81480  0.46940  0.41420  Biso   1.000  C
  C549     1.0000 0.84560  0.46840  0.43420  Biso   1.000  C
  H220     1.0000 0.85840  0.44720  0.43740  Biso   1.000  H
  C550     1.0000 0.81530  0.41170  0.23280  Biso   1.000  C
  C551     1.0000 0.85400  0.40790  0.22730  Biso   1.000  C
  C552     1.0000 0.87330  0.37710  0.23190  Biso   1.000  C
  H221     1.0000 0.86230  0.35710  0.24220  Biso   1.000  H
  C553     1.0000 0.90850  0.37510  0.22180  Biso   1.000  C
  C554     1.0000 0.92350  0.40490  0.20650  Biso   1.000  C
  H222     1.0000 0.94750  0.40400  0.19920  Biso   1.000  H
  C555     1.0000 0.90490  0.43610  0.20130  Biso   1.000  C
  C556     1.0000 0.86890  0.43760  0.20800  Biso   1.000  C
  H223     1.0000 0.85530  0.46030  0.20360  Biso   1.000  H
  C557     1.0000 0.92100  0.47080  0.18830  Biso   1.000  C
  C558     1.0000 0.95490  0.46990  0.17450  Biso   1.000  C
  H224     1.0000 0.96980  0.45010  0.17740  Biso   1.000  H
  C559     1.0000 0.93060  0.34250  0.22820  Biso   1.000  C
  C560     1.0000 0.77570  0.34050  0.42210  Biso   1.000  C
  O252     1.0000 0.73110  0.47190  0.23210  Biso   1.000  O
  Gd29     1.0000 0.24384  0.08863  0.25577  Biso   1.000  Gd
  O253     1.0000 0.24260  0.11720  0.20110  Biso   1.000  O
  O254     1.0000 0.25520  0.06090  0.20170  Biso   1.000  O
  O255     1.0000 0.29960  0.11660  0.25920  Biso   1.000  O
  O256     1.0000 0.29970  0.05990  0.26640  Biso   1.000  O
  O257     1.0000 0.41210  0.18140  0.26130  Biso   1.000  O
  O258     1.0000 0.46210  0.15760  0.27700  Biso   1.000  O
  O259     1.0000 0.25420  0.18140  0.08690  Biso   1.000  O
  O260     1.0000 0.29950  0.16500  0.05770  Biso   1.000  O
  C561     1.0000 0.25240  0.08880  0.18310  Biso   1.000  C
  C562     1.0000 0.26150  0.09060  0.14440  Biso   1.000  C
  C563     1.0000 0.28080  0.06090  0.13360  Biso   1.000  C
  H225     1.0000 0.28360  0.04080  0.14830  Biso   1.000  H
  C564     1.0000 0.29560  0.06250  0.09980  Biso   1.000  C
  C565     1.0000 0.29310  0.09400  0.08090  Biso   1.000  C
  H226     1.0000 0.30540  0.09540  0.05910  Biso   1.000  H
  C566     1.0000 0.27410  0.12380  0.09160  Biso   1.000  C
  C567     1.0000 0.25910  0.12170  0.12510  Biso   1.000  C
  H227     1.0000 0.24710  0.14150  0.13470  Biso   1.000  H
  C568     1.0000 0.31480  0.03060  0.08580  Biso   1.000  C
  C569     1.0000 0.34560  0.03160  0.06580  Biso   1.000  C
  H228     1.0000 0.35840  0.05280  0.06260  Biso   1.000  H
  C570     1.0000 0.31530  0.08830  0.26720  Biso   1.000  C
  C571     1.0000 0.35400  0.09210  0.27270  Biso   1.000  C
  C572     1.0000 0.37330  0.12290  0.26810  Biso   1.000  C
  H229     1.0000 0.36230  0.14290  0.25780  Biso   1.000  H
  C573     1.0000 0.40850  0.12490  0.27820  Biso   1.000  C
  C574     1.0000 0.42350  0.09510  0.29350  Biso   1.000  C
  H230     1.0000 0.44750  0.09600  0.30080  Biso   1.000  H
  C575     1.0000 0.40490  0.06390  0.29870  Biso   1.000  C
  C576     1.0000 0.36890  0.06240  0.29200  Biso   1.000  C
  H231     1.0000 0.35530  0.03970  0.29640  Biso   1.000  H
  C577     1.0000 0.42100  0.02920  0.31170  Biso   1.000  C
  C578     1.0000 0.45490  0.03010  0.32550  Biso   1.000  C
  H232     1.0000 0.46980  0.04990  0.32260  Biso   1.000  H
  C579     1.0000 0.43060  0.15750  0.27180  Biso   1.000  C
  C580     1.0000 0.27570  0.15950  0.07790  Biso   1.000  C
  O261     1.0000 0.23110  0.02810  0.26790  Biso   1.000  O
  Gd30     1.0000 0.74384  0.58863  0.75577  Biso   1.000  Gd
  O262     1.0000 0.74260  0.61720  0.70110  Biso   1.000  O
  O263     1.0000 0.75520  0.56090  0.70170  Biso   1.000  O
  O264     1.0000 0.79960  0.61660  0.75920  Biso   1.000  O
  O265     1.0000 0.79970  0.55990  0.76640  Biso   1.000  O
  O266     1.0000 0.91210  0.68140  0.76130  Biso   1.000  O
  O267     1.0000 0.96210  0.65760  0.77700  Biso   1.000  O
  O268     1.0000 0.75420  0.68140  0.58690  Biso   1.000  O
  O269     1.0000 0.79950  0.66500  0.55770  Biso   1.000  O
  C581     1.0000 0.75240  0.58880  0.68310  Biso   1.000  C
  C582     1.0000 0.76150  0.59060  0.64440  Biso   1.000  C
  C583     1.0000 0.78080  0.56090  0.63360  Biso   1.000  C
  H233     1.0000 0.78360  0.54080  0.64830  Biso   1.000  H
  C584     1.0000 0.79560  0.56250  0.59980  Biso   1.000  C
  C585     1.0000 0.79310  0.59400  0.58090  Biso   1.000  C
  H234     1.0000 0.80540  0.59540  0.55910  Biso   1.000  H
  C586     1.0000 0.77410  0.62380  0.59160  Biso   1.000  C
  C587     1.0000 0.75910  0.62170  0.62510  Biso   1.000  C
  H235     1.0000 0.74710  0.64150  0.63470  Biso   1.000  H
  C588     1.0000 0.81480  0.53060  0.58580  Biso   1.000  C
  C589     1.0000 0.84560  0.53160  0.56580  Biso   1.000  C
  H236     1.0000 0.85840  0.55280  0.56260  Biso   1.000  H
  C590     1.0000 0.81530  0.58830  0.76720  Biso   1.000  C
  C591     1.0000 0.85400  0.59210  0.77270  Biso   1.000  C
  C592     1.0000 0.87330  0.62290  0.76810  Biso   1.000  C
  H237     1.0000 0.86230  0.64290  0.75780  Biso   1.000  H
  C593     1.0000 0.90850  0.62490  0.77820  Biso   1.000  C
  C594     1.0000 0.92350  0.59510  0.79350  Biso   1.000  C
  H238     1.0000 0.94750  0.59600  0.80080  Biso   1.000  H
  C595     1.0000 0.90490  0.56390  0.79870  Biso   1.000  C
  C596     1.0000 0.86890  0.56240  0.79200  Biso   1.000  C
  H239     1.0000 0.85530  0.53970  0.79640  Biso   1.000  H
  C597     1.0000 0.92100  0.52920  0.81170  Biso   1.000  C
  C598     1.0000 0.95490  0.53010  0.82550  Biso   1.000  C
  H240     1.0000 0.96980  0.54990  0.82260  Biso   1.000  H
  C599     1.0000 0.93060  0.65750  0.77180  Biso   1.000  C
  C600     1.0000 0.77570  0.65950  0.57790  Biso   1.000  C
  O270     1.0000 0.73110  0.52810  0.76790  Biso   1.000  O
  Gd31     1.0000 0.75616  0.91137  0.25577  Biso   1.000  Gd
  O271     1.0000 0.75740  0.88280  0.20110  Biso   1.000  O
  O272     1.0000 0.74480  0.93910  0.20170  Biso   1.000  O
  O273     1.0000 0.70040  0.88340  0.25920  Biso   1.000  O
  O274     1.0000 0.70030  0.94010  0.26640  Biso   1.000  O
  O275     1.0000 0.58790  0.81860  0.26130  Biso   1.000  O
  O276     1.0000 0.53790  0.84240  0.27700  Biso   1.000  O
  O277     1.0000 0.74580  0.81860  0.08690  Biso   1.000  O
  O278     1.0000 0.70050  0.83500  0.05770  Biso   1.000  O
  C601     1.0000 0.74760  0.91120  0.18310  Biso   1.000  C
  C602     1.0000 0.73850  0.90940  0.14440  Biso   1.000  C
  C603     1.0000 0.71920  0.93910  0.13360  Biso   1.000  C
  H241     1.0000 0.71640  0.95920  0.14830  Biso   1.000  H
  C604     1.0000 0.70440  0.93750  0.09980  Biso   1.000  C
  C605     1.0000 0.70690  0.90600  0.08090  Biso   1.000  C
  H242     1.0000 0.69460  0.90460  0.05910  Biso   1.000  H
  C606     1.0000 0.72590  0.87620  0.09160  Biso   1.000  C
  C607     1.0000 0.74090  0.87830  0.12510  Biso   1.000  C
  H243     1.0000 0.75290  0.85850  0.13470  Biso   1.000  H
  C608     1.0000 0.68520  0.96940  0.08580  Biso   1.000  C
  C609     1.0000 0.65440  0.96840  0.06580  Biso   1.000  C
  H244     1.0000 0.64160  0.94720  0.06260  Biso   1.000  H
  C610     1.0000 0.68470  0.91170  0.26720  Biso   1.000  C
  C611     1.0000 0.64600  0.90790  0.27270  Biso   1.000  C
  C612     1.0000 0.62670  0.87710  0.26810  Biso   1.000  C
  H245     1.0000 0.63770  0.85710  0.25780  Biso   1.000  H
  C613     1.0000 0.59150  0.87510  0.27820  Biso   1.000  C
  C614     1.0000 0.57650  0.90490  0.29350  Biso   1.000  C
  H246     1.0000 0.55250  0.90400  0.30080  Biso   1.000  H
  C615     1.0000 0.59510  0.93610  0.29870  Biso   1.000  C
  C616     1.0000 0.63110  0.93760  0.29200  Biso   1.000  C
  H247     1.0000 0.64470  0.96030  0.29640  Biso   1.000  H
  C617     1.0000 0.57900  0.97080  0.31170  Biso   1.000  C
  C618     1.0000 0.54510  0.96990  0.32550  Biso   1.000  C
  H248     1.0000 0.53020  0.95010  0.32260  Biso   1.000  H
  C619     1.0000 0.56940  0.84250  0.27180  Biso   1.000  C
  C620     1.0000 0.72430  0.84050  0.07790  Biso   1.000  C
  O279     1.0000 0.76890  0.97190  0.26790  Biso   1.000  O
  Gd32     1.0000 0.25616  0.41137  0.75577  Biso   1.000  Gd
  O280     1.0000 0.25740  0.38280  0.70110  Biso   1.000  O
  O281     1.0000 0.24480  0.43910  0.70170  Biso   1.000  O
  O282     1.0000 0.20040  0.38340  0.75920  Biso   1.000  O
  O283     1.0000 0.20030  0.44010  0.76640  Biso   1.000  O
  O284     1.0000 0.08790  0.31860  0.76130  Biso   1.000  O
  O285     1.0000 0.03790  0.34240  0.77700  Biso   1.000  O
  O286     1.0000 0.24580  0.31860  0.58690  Biso   1.000  O
  O287     1.0000 0.20050  0.33500  0.55770  Biso   1.000  O
  C621     1.0000 0.24760  0.41120  0.68310  Biso   1.000  C
  C622     1.0000 0.23850  0.40940  0.64440  Biso   1.000  C
  C623     1.0000 0.21920  0.43910  0.63360  Biso   1.000  C
  H249     1.0000 0.21640  0.45920  0.64830  Biso   1.000  H
  C624     1.0000 0.20440  0.43750  0.59980  Biso   1.000  C
  C625     1.0000 0.20690  0.40600  0.58090  Biso   1.000  C
  H250     1.0000 0.19460  0.40460  0.55910  Biso   1.000  H
  C626     1.0000 0.22590  0.37620  0.59160  Biso   1.000  C
  C627     1.0000 0.24090  0.37830  0.62510  Biso   1.000  C
  H251     1.0000 0.25290  0.35850  0.63470  Biso   1.000  H
  C628     1.0000 0.18520  0.46940  0.58580  Biso   1.000  C
  C629     1.0000 0.15440  0.46840  0.56580  Biso   1.000  C
  H252     1.0000 0.14160  0.44720  0.56260  Biso   1.000  H
  C630     1.0000 0.18470  0.41170  0.76720  Biso   1.000  C
  C631     1.0000 0.14600  0.40790  0.77270  Biso   1.000  C
  C632     1.0000 0.12670  0.37710  0.76810  Biso   1.000  C
  H253     1.0000 0.13770  0.35710  0.75780  Biso   1.000  H
  C633     1.0000 0.09150  0.37510  0.77820  Biso   1.000  C
  C634     1.0000 0.07650  0.40490  0.79350  Biso   1.000  C
  H254     1.0000 0.05250  0.40400  0.80080  Biso   1.000  H
  C635     1.0000 0.09510  0.43610  0.79870  Biso   1.000  C
  C636     1.0000 0.13110  0.43760  0.79200  Biso   1.000  C
  H255     1.0000 0.14470  0.46030  0.79640  Biso   1.000  H
  C637     1.0000 0.07900  0.47080  0.81170  Biso   1.000  C
  C638     1.0000 0.04510  0.46990  0.82550  Biso   1.000  C
  H256     1.0000 0.03020  0.45010  0.82260  Biso   1.000  H
  C639     1.0000 0.06940  0.34250  0.77180  Biso   1.000  C
  C640     1.0000 0.22430  0.34050  0.57790  Biso   1.000  C
  O288     1.0000 0.26890  0.47190  0.76790  Biso   1.000  O
  Gd33     1.0000 0.74423  0.75616  0.08863  Biso   1.000  Gd
  O289     1.0000 0.79890  0.75740  0.11720  Biso   1.000  O
  O290     1.0000 0.79830  0.74480  0.06090  Biso   1.000  O
  O291     1.0000 0.74080  0.70040  0.11660  Biso   1.000  O
  O292     1.0000 0.73360  0.70030  0.05990  Biso   1.000  O
  O293     1.0000 0.73870  0.58790  0.18140  Biso   1.000  O
  O294     1.0000 0.72300  0.53790  0.15760  Biso   1.000  O
  O295     1.0000 0.91310  0.74580  0.18140  Biso   1.000  O
  O296     1.0000 0.94230  0.70050  0.16500  Biso   1.000  O
  C641     1.0000 0.81690  0.74760  0.08880  Biso   1.000  C
  C642     1.0000 0.85560  0.73850  0.09060  Biso   1.000  C
  C643     1.0000 0.86640  0.71920  0.06090  Biso   1.000  C
  H257     1.0000 0.85170  0.71640  0.04080  Biso   1.000  H
  C644     1.0000 0.90020  0.70440  0.06250  Biso   1.000  C
  C645     1.0000 0.91910  0.70690  0.09400  Biso   1.000  C
  H258     1.0000 0.94090  0.69460  0.09540  Biso   1.000  H
  C646     1.0000 0.90840  0.72590  0.12380  Biso   1.000  C
  C647     1.0000 0.87490  0.74090  0.12170  Biso   1.000  C
  H259     1.0000 0.86530  0.75290  0.14150  Biso   1.000  H
  C648     1.0000 0.91420  0.68520  0.03060  Biso   1.000  C
  C649     1.0000 0.93420  0.65440  0.03160  Biso   1.000  C
  H260     1.0000 0.93740  0.64160  0.05280  Biso   1.000  H
  C650     1.0000 0.73280  0.68470  0.08830  Biso   1.000  C
  C651     1.0000 0.72730  0.64600  0.09210  Biso   1.000  C
  C652     1.0000 0.73190  0.62670  0.12290  Biso   1.000  C
  H261     1.0000 0.74220  0.63770  0.14290  Biso   1.000  H
  C653     1.0000 0.72180  0.59150  0.12490  Biso   1.000  C
  C654     1.0000 0.70650  0.57650  0.09510  Biso   1.000  C
  H262     1.0000 0.69920  0.55250  0.09600  Biso   1.000  H
  C655     1.0000 0.70130  0.59510  0.06390  Biso   1.000  C
  C656     1.0000 0.70800  0.63110  0.06240  Biso   1.000  C
  H263     1.0000 0.70360  0.64470  0.03970  Biso   1.000  H
  C657     1.0000 0.68830  0.57900  0.02920  Biso   1.000  C
  C658     1.0000 0.67450  0.54510  0.03010  Biso   1.000  C
  H264     1.0000 0.67740  0.53020  0.04990  Biso   1.000  H
  C659     1.0000 0.72820  0.56940  0.15750  Biso   1.000  C
  C660     1.0000 0.92210  0.72430  0.15950  Biso   1.000  C
  O297     1.0000 0.73210  0.76890  0.02810  Biso   1.000  O
  Gd34     1.0000 0.24423  0.25616  0.58863  Biso   1.000  Gd
  O298     1.0000 0.29890  0.25740  0.61720  Biso   1.000  O
  O299     1.0000 0.29830  0.24480  0.56090  Biso   1.000  O
  O300     1.0000 0.24080  0.20040  0.61660  Biso   1.000  O
  O301     1.0000 0.23360  0.20030  0.55990  Biso   1.000  O
  O302     1.0000 0.23870  0.08790  0.68140  Biso   1.000  O
  O303     1.0000 0.22300  0.03790  0.65760  Biso   1.000  O
  O304     1.0000 0.41310  0.24580  0.68140  Biso   1.000  O
  O305     1.0000 0.44230  0.20050  0.66500  Biso   1.000  O
  C661     1.0000 0.31690  0.24760  0.58880  Biso   1.000  C
  C662     1.0000 0.35560  0.23850  0.59060  Biso   1.000  C
  C663     1.0000 0.36640  0.21920  0.56090  Biso   1.000  C
  H265     1.0000 0.35170  0.21640  0.54080  Biso   1.000  H
  C664     1.0000 0.40020  0.20440  0.56250  Biso   1.000  C
  C665     1.0000 0.41910  0.20690  0.59400  Biso   1.000  C
  H266     1.0000 0.44090  0.19460  0.59540  Biso   1.000  H
  C666     1.0000 0.40840  0.22590  0.62380  Biso   1.000  C
  C667     1.0000 0.37490  0.24090  0.62170  Biso   1.000  C
  H267     1.0000 0.36530  0.25290  0.64150  Biso   1.000  H
  C668     1.0000 0.41420  0.18520  0.53060  Biso   1.000  C
  C669     1.0000 0.43420  0.15440  0.53160  Biso   1.000  C
  H268     1.0000 0.43740  0.14160  0.55280  Biso   1.000  H
  C670     1.0000 0.23280  0.18470  0.58830  Biso   1.000  C
  C671     1.0000 0.22730  0.14600  0.59210  Biso   1.000  C
  C672     1.0000 0.23190  0.12670  0.62290  Biso   1.000  C
  H269     1.0000 0.24220  0.13770  0.64290  Biso   1.000  H
  C673     1.0000 0.22180  0.09150  0.62490  Biso   1.000  C
  C674     1.0000 0.20650  0.07650  0.59510  Biso   1.000  C
  H270     1.0000 0.19920  0.05250  0.59600  Biso   1.000  H
  C675     1.0000 0.20130  0.09510  0.56390  Biso   1.000  C
  C676     1.0000 0.20800  0.13110  0.56240  Biso   1.000  C
  H271     1.0000 0.20360  0.14470  0.53970  Biso   1.000  H
  C677     1.0000 0.18830  0.07900  0.52920  Biso   1.000  C
  C678     1.0000 0.17450  0.04510  0.53010  Biso   1.000  C
  H272     1.0000 0.17740  0.03020  0.54990  Biso   1.000  H
  C679     1.0000 0.22820  0.06940  0.65750  Biso   1.000  C
  C680     1.0000 0.42210  0.22430  0.65950  Biso   1.000  C
  O306     1.0000 0.23210  0.26890  0.52810  Biso   1.000  O
  Gd35     1.0000 0.74423  0.24384  0.91137  Biso   1.000  Gd
  O307     1.0000 0.79890  0.24260  0.88280  Biso   1.000  O
  O308     1.0000 0.79830  0.25520  0.93910  Biso   1.000  O
  O309     1.0000 0.74080  0.29960  0.88340  Biso   1.000  O
  O310     1.0000 0.73360  0.29970  0.94010  Biso   1.000  O
  O311     1.0000 0.73870  0.41210  0.81860  Biso   1.000  O
  O312     1.0000 0.72300  0.46210  0.84240  Biso   1.000  O
  O313     1.0000 0.91310  0.25420  0.81860  Biso   1.000  O
  O314     1.0000 0.94230  0.29950  0.83500  Biso   1.000  O
  C681     1.0000 0.81690  0.25240  0.91120  Biso   1.000  C
  C682     1.0000 0.85560  0.26150  0.90940  Biso   1.000  C
  C683     1.0000 0.86640  0.28080  0.93910  Biso   1.000  C
  H273     1.0000 0.85170  0.28360  0.95920  Biso   1.000  H
  C684     1.0000 0.90020  0.29560  0.93750  Biso   1.000  C
  C685     1.0000 0.91910  0.29310  0.90600  Biso   1.000  C
  H274     1.0000 0.94090  0.30540  0.90460  Biso   1.000  H
  C686     1.0000 0.90840  0.27410  0.87620  Biso   1.000  C
  C687     1.0000 0.87490  0.25910  0.87830  Biso   1.000  C
  H275     1.0000 0.86530  0.24710  0.85850  Biso   1.000  H
  C688     1.0000 0.91420  0.31480  0.96940  Biso   1.000  C
  C689     1.0000 0.93420  0.34560  0.96840  Biso   1.000  C
  H276     1.0000 0.93740  0.35840  0.94720  Biso   1.000  H
  C690     1.0000 0.73280  0.31530  0.91170  Biso   1.000  C
  C691     1.0000 0.72730  0.35400  0.90790  Biso   1.000  C
  C692     1.0000 0.73190  0.37330  0.87710  Biso   1.000  C
  H277     1.0000 0.74220  0.36230  0.85710  Biso   1.000  H
  C693     1.0000 0.72180  0.40850  0.87510  Biso   1.000  C
  C694     1.0000 0.70650  0.42350  0.90490  Biso   1.000  C
  H278     1.0000 0.69920  0.44750  0.90400  Biso   1.000  H
  C695     1.0000 0.70130  0.40490  0.93610  Biso   1.000  C
  C696     1.0000 0.70800  0.36890  0.93760  Biso   1.000  C
  H279     1.0000 0.70360  0.35530  0.96030  Biso   1.000  H
  C697     1.0000 0.68830  0.42100  0.97080  Biso   1.000  C
  C698     1.0000 0.67450  0.45490  0.96990  Biso   1.000  C
  H280     1.0000 0.67740  0.46980  0.95010  Biso   1.000  H
  C699     1.0000 0.72820  0.43060  0.84250  Biso   1.000  C
  C700     1.0000 0.92210  0.27570  0.84050  Biso   1.000  C
  O315     1.0000 0.73210  0.23110  0.97190  Biso   1.000  O
  Gd36     1.0000 0.24423  0.74384  0.41137  Biso   1.000  Gd
  O316     1.0000 0.29890  0.74260  0.38280  Biso   1.000  O
  O317     1.0000 0.29830  0.75520  0.43910  Biso   1.000  O
  O318     1.0000 0.24080  0.79960  0.38340  Biso   1.000  O
  O319     1.0000 0.23360  0.79970  0.44010  Biso   1.000  O
  O320     1.0000 0.23870  0.91210  0.31860  Biso   1.000  O
  O321     1.0000 0.22300  0.96210  0.34240  Biso   1.000  O
  O322     1.0000 0.41310  0.75420  0.31860  Biso   1.000  O
  O323     1.0000 0.44230  0.79950  0.33500  Biso   1.000  O
  C701     1.0000 0.31690  0.75240  0.41120  Biso   1.000  C
  C702     1.0000 0.35560  0.76150  0.40940  Biso   1.000  C
  C703     1.0000 0.36640  0.78080  0.43910  Biso   1.000  C
  H281     1.0000 0.35170  0.78360  0.45920  Biso   1.000  H
  C704     1.0000 0.40020  0.79560  0.43750  Biso   1.000  C
  C705     1.0000 0.41910  0.79310  0.40600  Biso   1.000  C
  H282     1.0000 0.44090  0.80540  0.40460  Biso   1.000  H
  C706     1.0000 0.40840  0.77410  0.37620  Biso   1.000  C
  C707     1.0000 0.37490  0.75910  0.37830  Biso   1.000  C
  H283     1.0000 0.36530  0.74710  0.35850  Biso   1.000  H
  C708     1.0000 0.41420  0.81480  0.46940  Biso   1.000  C
  C709     1.0000 0.43420  0.84560  0.46840  Biso   1.000  C
  H284     1.0000 0.43740  0.85840  0.44720  Biso   1.000  H
  C710     1.0000 0.23280  0.81530  0.41170  Biso   1.000  C
  C711     1.0000 0.22730  0.85400  0.40790  Biso   1.000  C
  C712     1.0000 0.23190  0.87330  0.37710  Biso   1.000  C
  H285     1.0000 0.24220  0.86230  0.35710  Biso   1.000  H
  C713     1.0000 0.22180  0.90850  0.37510  Biso   1.000  C
  C714     1.0000 0.20650  0.92350  0.40490  Biso   1.000  C
  H286     1.0000 0.19920  0.94750  0.40400  Biso   1.000  H
  C715     1.0000 0.20130  0.90490  0.43610  Biso   1.000  C
  C716     1.0000 0.20800  0.86890  0.43760  Biso   1.000  C
  H287     1.0000 0.20360  0.85530  0.46030  Biso   1.000  H
  C717     1.0000 0.18830  0.92100  0.47080  Biso   1.000  C
  C718     1.0000 0.17450  0.95490  0.46990  Biso   1.000  C
  H288     1.0000 0.17740  0.96980  0.45010  Biso   1.000  H
  C719     1.0000 0.22820  0.93060  0.34250  Biso   1.000  C
  C720     1.0000 0.42210  0.77570  0.34050  Biso   1.000  C
  O324     1.0000 0.23210  0.73110  0.47190  Biso   1.000  O
  Gd37     1.0000 0.25577  0.24384  0.08863  Biso   1.000  Gd
  O325     1.0000 0.20110  0.24260  0.11720  Biso   1.000  O
  O326     1.0000 0.20170  0.25520  0.06090  Biso   1.000  O
  O327     1.0000 0.25920  0.29960  0.11660  Biso   1.000  O
  O328     1.0000 0.26640  0.29970  0.05990  Biso   1.000  O
  O329     1.0000 0.26130  0.41210  0.18140  Biso   1.000  O
  O330     1.0000 0.27700  0.46210  0.15760  Biso   1.000  O
  O331     1.0000 0.08690  0.25420  0.18140  Biso   1.000  O
  O332     1.0000 0.05770  0.29950  0.16500  Biso   1.000  O
  C721     1.0000 0.18310  0.25240  0.08880  Biso   1.000  C
  C722     1.0000 0.14440  0.26150  0.09060  Biso   1.000  C
  C723     1.0000 0.13360  0.28080  0.06090  Biso   1.000  C
  H289     1.0000 0.14830  0.28360  0.04080  Biso   1.000  H
  C724     1.0000 0.09980  0.29560  0.06250  Biso   1.000  C
  C725     1.0000 0.08090  0.29310  0.09400  Biso   1.000  C
  H290     1.0000 0.05910  0.30540  0.09540  Biso   1.000  H
  C726     1.0000 0.09160  0.27410  0.12380  Biso   1.000  C
  C727     1.0000 0.12510  0.25910  0.12170  Biso   1.000  C
  H291     1.0000 0.13470  0.24710  0.14150  Biso   1.000  H
  C728     1.0000 0.08580  0.31480  0.03060  Biso   1.000  C
  C729     1.0000 0.06580  0.34560  0.03160  Biso   1.000  C
  H292     1.0000 0.06260  0.35840  0.05280  Biso   1.000  H
  C730     1.0000 0.26720  0.31530  0.08830  Biso   1.000  C
  C731     1.0000 0.27270  0.35400  0.09210  Biso   1.000  C
  C732     1.0000 0.26810  0.37330  0.12290  Biso   1.000  C
  H293     1.0000 0.25780  0.36230  0.14290  Biso   1.000  H
  C733     1.0000 0.27820  0.40850  0.12490  Biso   1.000  C
  C734     1.0000 0.29350  0.42350  0.09510  Biso   1.000  C
  H294     1.0000 0.30080  0.44750  0.09600  Biso   1.000  H
  C735     1.0000 0.29870  0.40490  0.06390  Biso   1.000  C
  C736     1.0000 0.29200  0.36890  0.06240  Biso   1.000  C
  H295     1.0000 0.29640  0.35530  0.03970  Biso   1.000  H
  C737     1.0000 0.31170  0.42100  0.02920  Biso   1.000  C
  C738     1.0000 0.32550  0.45490  0.03010  Biso   1.000  C
  H296     1.0000 0.32260  0.46980  0.04990  Biso   1.000  H
  C739     1.0000 0.27180  0.43060  0.15750  Biso   1.000  C
  C740     1.0000 0.07790  0.27570  0.15950  Biso   1.000  C
  O333     1.0000 0.26790  0.23110  0.02810  Biso   1.000  O
  Gd38     1.0000 0.75577  0.74384  0.58863  Biso   1.000  Gd
  O334     1.0000 0.70110  0.74260  0.61720  Biso   1.000  O
  O335     1.0000 0.70170  0.75520  0.56090  Biso   1.000  O
  O336     1.0000 0.75920  0.79960  0.61660  Biso   1.000  O
  O337     1.0000 0.76640  0.79970  0.55990  Biso   1.000  O
  O338     1.0000 0.76130  0.91210  0.68140  Biso   1.000  O
  O339     1.0000 0.77700  0.96210  0.65760  Biso   1.000  O
  O340     1.0000 0.58690  0.75420  0.68140  Biso   1.000  O
  O341     1.0000 0.55770  0.79950  0.66500  Biso   1.000  O
  C741     1.0000 0.68310  0.75240  0.58880  Biso   1.000  C
  C742     1.0000 0.64440  0.76150  0.59060  Biso   1.000  C
  C743     1.0000 0.63360  0.78080  0.56090  Biso   1.000  C
  H297     1.0000 0.64830  0.78360  0.54080  Biso   1.000  H
  C744     1.0000 0.59980  0.79560  0.56250  Biso   1.000  C
  C745     1.0000 0.58090  0.79310  0.59400  Biso   1.000  C
  H298     1.0000 0.55910  0.80540  0.59540  Biso   1.000  H
  C746     1.0000 0.59160  0.77410  0.62380  Biso   1.000  C
  C747     1.0000 0.62510  0.75910  0.62170  Biso   1.000  C
  H299     1.0000 0.63470  0.74710  0.64150  Biso   1.000  H
  C748     1.0000 0.58580  0.81480  0.53060  Biso   1.000  C
  C749     1.0000 0.56580  0.84560  0.53160  Biso   1.000  C
  H300     1.0000 0.56260  0.85840  0.55280  Biso   1.000  H
  C750     1.0000 0.76720  0.81530  0.58830  Biso   1.000  C
  C751     1.0000 0.77270  0.85400  0.59210  Biso   1.000  C
  C752     1.0000 0.76810  0.87330  0.62290  Biso   1.000  C
  H301     1.0000 0.75780  0.86230  0.64290  Biso   1.000  H
  C753     1.0000 0.77820  0.90850  0.62490  Biso   1.000  C
  C754     1.0000 0.79350  0.92350  0.59510  Biso   1.000  C
  H302     1.0000 0.80080  0.94750  0.59600  Biso   1.000  H
  C755     1.0000 0.79870  0.90490  0.56390  Biso   1.000  C
  C756     1.0000 0.79200  0.86890  0.56240  Biso   1.000  C
  H303     1.0000 0.79640  0.85530  0.53970  Biso   1.000  H
  C757     1.0000 0.81170  0.92100  0.52920  Biso   1.000  C
  C758     1.0000 0.82550  0.95490  0.53010  Biso   1.000  C
  H304     1.0000 0.82260  0.96980  0.54990  Biso   1.000  H
  C759     1.0000 0.77180  0.93060  0.65750  Biso   1.000  C
  C760     1.0000 0.57790  0.77570  0.65950  Biso   1.000  C
  O342     1.0000 0.76790  0.73110  0.52810  Biso   1.000  O
  Gd39     1.0000 0.25577  0.75616  0.91137  Biso   1.000  Gd
  O343     1.0000 0.20110  0.75740  0.88280  Biso   1.000  O
  O344     1.0000 0.20170  0.74480  0.93910  Biso   1.000  O
  O345     1.0000 0.25920  0.70040  0.88340  Biso   1.000  O
  O346     1.0000 0.26640  0.70030  0.94010  Biso   1.000  O
  O347     1.0000 0.26130  0.58790  0.81860  Biso   1.000  O
  O348     1.0000 0.27700  0.53790  0.84240  Biso   1.000  O
  O349     1.0000 0.08690  0.74580  0.81860  Biso   1.000  O
  O350     1.0000 0.05770  0.70050  0.83500  Biso   1.000  O
  C761     1.0000 0.18310  0.74760  0.91120  Biso   1.000  C
  C762     1.0000 0.14440  0.73850  0.90940  Biso   1.000  C
  C763     1.0000 0.13360  0.71920  0.93910  Biso   1.000  C
  H305     1.0000 0.14830  0.71640  0.95920  Biso   1.000  H
  C764     1.0000 0.09980  0.70440  0.93750  Biso   1.000  C
  C765     1.0000 0.08090  0.70690  0.90600  Biso   1.000  C
  H306     1.0000 0.05910  0.69460  0.90460  Biso   1.000  H
  C766     1.0000 0.09160  0.72590  0.87620  Biso   1.000  C
  C767     1.0000 0.12510  0.74090  0.87830  Biso   1.000  C
  H307     1.0000 0.13470  0.75290  0.85850  Biso   1.000  H
  C768     1.0000 0.08580  0.68520  0.96940  Biso   1.000  C
  C769     1.0000 0.06580  0.65440  0.96840  Biso   1.000  C
  H308     1.0000 0.06260  0.64160  0.94720  Biso   1.000  H
  C770     1.0000 0.26720  0.68470  0.91170  Biso   1.000  C
  C771     1.0000 0.27270  0.64600  0.90790  Biso   1.000  C
  C772     1.0000 0.26810  0.62670  0.87710  Biso   1.000  C
  H309     1.0000 0.25780  0.63770  0.85710  Biso   1.000  H
  C773     1.0000 0.27820  0.59150  0.87510  Biso   1.000  C
  C774     1.0000 0.29350  0.57650  0.90490  Biso   1.000  C
  H310     1.0000 0.30080  0.55250  0.90400  Biso   1.000  H
  C775     1.0000 0.29870  0.59510  0.93610  Biso   1.000  C
  C776     1.0000 0.29200  0.63110  0.93760  Biso   1.000  C
  H311     1.0000 0.29640  0.64470  0.96030  Biso   1.000  H
  C777     1.0000 0.31170  0.57900  0.97080  Biso   1.000  C
  C778     1.0000 0.32550  0.54510  0.96990  Biso   1.000  C
  H312     1.0000 0.32260  0.53020  0.95010  Biso   1.000  H
  C779     1.0000 0.27180  0.56940  0.84250  Biso   1.000  C
  C780     1.0000 0.07790  0.72430  0.84050  Biso   1.000  C
  O351     1.0000 0.26790  0.76890  0.97190  Biso   1.000  O
  Gd40     1.0000 0.75577  0.25616  0.41137  Biso   1.000  Gd
  O352     1.0000 0.70110  0.25740  0.38280  Biso   1.000  O
  O353     1.0000 0.70170  0.24480  0.43910  Biso   1.000  O
  O354     1.0000 0.75920  0.20040  0.38340  Biso   1.000  O
  O355     1.0000 0.76640  0.20030  0.44010  Biso   1.000  O
  O356     1.0000 0.76130  0.08790  0.31860  Biso   1.000  O
  O357     1.0000 0.77700  0.03790  0.34240  Biso   1.000  O
  O358     1.0000 0.58690  0.24580  0.31860  Biso   1.000  O
  O359     1.0000 0.55770  0.20050  0.33500  Biso   1.000  O
  C781     1.0000 0.68310  0.24760  0.41120  Biso   1.000  C
  C782     1.0000 0.64440  0.23850  0.40940  Biso   1.000  C
  C783     1.0000 0.63360  0.21920  0.43910  Biso   1.000  C
  H313     1.0000 0.64830  0.21640  0.45920  Biso   1.000  H
  C784     1.0000 0.59980  0.20440  0.43750  Biso   1.000  C
  C785     1.0000 0.58090  0.20690  0.40600  Biso   1.000  C
  H314     1.0000 0.55910  0.19460  0.40460  Biso   1.000  H
  C786     1.0000 0.59160  0.22590  0.37620  Biso   1.000  C
  C787     1.0000 0.62510  0.24090  0.37830  Biso   1.000  C
  H315     1.0000 0.63470  0.25290  0.35850  Biso   1.000  H
  C788     1.0000 0.58580  0.18520  0.46940  Biso   1.000  C
  C789     1.0000 0.56580  0.15440  0.46840  Biso   1.000  C
  H316     1.0000 0.56260  0.14160  0.44720  Biso   1.000  H
  C790     1.0000 0.76720  0.18470  0.41170  Biso   1.000  C
  C791     1.0000 0.77270  0.14600  0.40790  Biso   1.000  C
  C792     1.0000 0.76810  0.12670  0.37710  Biso   1.000  C
  H317     1.0000 0.75780  0.13770  0.35710  Biso   1.000  H
  C793     1.0000 0.77820  0.09150  0.37510  Biso   1.000  C
  C794     1.0000 0.79350  0.07650  0.40490  Biso   1.000  C
  H318     1.0000 0.80080  0.05250  0.40400  Biso   1.000  H
  C795     1.0000 0.79870  0.09510  0.43610  Biso   1.000  C
  C796     1.0000 0.79200  0.13110  0.43760  Biso   1.000  C
  H319     1.0000 0.79640  0.14470  0.46030  Biso   1.000  H
  C797     1.0000 0.81170  0.07900  0.47080  Biso   1.000  C
  C798     1.0000 0.82550  0.04510  0.46990  Biso   1.000  C
  H320     1.0000 0.82260  0.03020  0.45010  Biso   1.000  H
  C799     1.0000 0.77180  0.06940  0.34250  Biso   1.000  C
  C800     1.0000 0.57790  0.22430  0.34050  Biso   1.000  C
  O360     1.0000 0.76790  0.26890  0.47190  Biso   1.000  O
  Gd41     1.0000 0.08863  0.74423  0.75616  Biso   1.000  Gd
  O361     1.0000 0.11720  0.79890  0.75740  Biso   1.000  O
  O362     1.0000 0.06090  0.79830  0.74480  Biso   1.000  O
  O363     1.0000 0.11660  0.74080  0.70040  Biso   1.000  O
  O364     1.0000 0.05990  0.73360  0.70030  Biso   1.000  O
  O365     1.0000 0.18140  0.73870  0.58790  Biso   1.000  O
  O366     1.0000 0.15760  0.72300  0.53790  Biso   1.000  O
  O367     1.0000 0.18140  0.91310  0.74580  Biso   1.000  O
  O368     1.0000 0.16500  0.94230  0.70050  Biso   1.000  O
  C801     1.0000 0.08880  0.81690  0.74760  Biso   1.000  C
  C802     1.0000 0.09060  0.85560  0.73850  Biso   1.000  C
  C803     1.0000 0.06090  0.86640  0.71920  Biso   1.000  C
  H321     1.0000 0.04080  0.85170  0.71640  Biso   1.000  H
  C804     1.0000 0.06250  0.90020  0.70440  Biso   1.000  C
  C805     1.0000 0.09400  0.91910  0.70690  Biso   1.000  C
  H322     1.0000 0.09540  0.94090  0.69460  Biso   1.000  H
  C806     1.0000 0.12380  0.90840  0.72590  Biso   1.000  C
  C807     1.0000 0.12170  0.87490  0.74090  Biso   1.000  C
  H323     1.0000 0.14150  0.86530  0.75290  Biso   1.000  H
  C808     1.0000 0.03060  0.91420  0.68520  Biso   1.000  C
  C809     1.0000 0.03160  0.93420  0.65440  Biso   1.000  C
  H324     1.0000 0.05280  0.93740  0.64160  Biso   1.000  H
  C810     1.0000 0.08830  0.73280  0.68470  Biso   1.000  C
  C811     1.0000 0.09210  0.72730  0.64600  Biso   1.000  C
  C812     1.0000 0.12290  0.73190  0.62670  Biso   1.000  C
  H325     1.0000 0.14290  0.74220  0.63770  Biso   1.000  H
  C813     1.0000 0.12490  0.72180  0.59150  Biso   1.000  C
  C814     1.0000 0.09510  0.70650  0.57650  Biso   1.000  C
  H326     1.0000 0.09600  0.69920  0.55250  Biso   1.000  H
  C815     1.0000 0.06390  0.70130  0.59510  Biso   1.000  C
  C816     1.0000 0.06240  0.70800  0.63110  Biso   1.000  C
  H327     1.0000 0.03970  0.70360  0.64470  Biso   1.000  H
  C817     1.0000 0.02920  0.68830  0.57900  Biso   1.000  C
  C818     1.0000 0.03010  0.67450  0.54510  Biso   1.000  C
  H328     1.0000 0.04990  0.67740  0.53020  Biso   1.000  H
  C819     1.0000 0.15750  0.72820  0.56940  Biso   1.000  C
  C820     1.0000 0.15950  0.92210  0.72430  Biso   1.000  C
  O369     1.0000 0.02810  0.73210  0.76890  Biso   1.000  O
  Gd42     1.0000 0.58863  0.24423  0.25616  Biso   1.000  Gd
  O370     1.0000 0.61720  0.29890  0.25740  Biso   1.000  O
  O371     1.0000 0.56090  0.29830  0.24480  Biso   1.000  O
  O372     1.0000 0.61660  0.24080  0.20040  Biso   1.000  O
  O373     1.0000 0.55990  0.23360  0.20030  Biso   1.000  O
  O374     1.0000 0.68140  0.23870  0.08790  Biso   1.000  O
  O375     1.0000 0.65760  0.22300  0.03790  Biso   1.000  O
  O376     1.0000 0.68140  0.41310  0.24580  Biso   1.000  O
  O377     1.0000 0.66500  0.44230  0.20050  Biso   1.000  O
  C821     1.0000 0.58880  0.31690  0.24760  Biso   1.000  C
  C822     1.0000 0.59060  0.35560  0.23850  Biso   1.000  C
  C823     1.0000 0.56090  0.36640  0.21920  Biso   1.000  C
  H329     1.0000 0.54080  0.35170  0.21640  Biso   1.000  H
  C824     1.0000 0.56250  0.40020  0.20440  Biso   1.000  C
  C825     1.0000 0.59400  0.41910  0.20690  Biso   1.000  C
  H330     1.0000 0.59540  0.44090  0.19460  Biso   1.000  H
  C826     1.0000 0.62380  0.40840  0.22590  Biso   1.000  C
  C827     1.0000 0.62170  0.37490  0.24090  Biso   1.000  C
  H331     1.0000 0.64150  0.36530  0.25290  Biso   1.000  H
  C828     1.0000 0.53060  0.41420  0.18520  Biso   1.000  C
  C829     1.0000 0.53160  0.43420  0.15440  Biso   1.000  C
  H332     1.0000 0.55280  0.43740  0.14160  Biso   1.000  H
  C830     1.0000 0.58830  0.23280  0.18470  Biso   1.000  C
  C831     1.0000 0.59210  0.22730  0.14600  Biso   1.000  C
  C832     1.0000 0.62290  0.23190  0.12670  Biso   1.000  C
  H333     1.0000 0.64290  0.24220  0.13770  Biso   1.000  H
  C833     1.0000 0.62490  0.22180  0.09150  Biso   1.000  C
  C834     1.0000 0.59510  0.20650  0.07650  Biso   1.000  C
  H334     1.0000 0.59600  0.19920  0.05250  Biso   1.000  H
  C835     1.0000 0.56390  0.20130  0.09510  Biso   1.000  C
  C836     1.0000 0.56240  0.20800  0.13110  Biso   1.000  C
  H335     1.0000 0.53970  0.20360  0.14470  Biso   1.000  H
  C837     1.0000 0.52920  0.18830  0.07900  Biso   1.000  C
  C838     1.0000 0.53010  0.17450  0.04510  Biso   1.000  C
  H336     1.0000 0.54990  0.17740  0.03020  Biso   1.000  H
  C839     1.0000 0.65750  0.22820  0.06940  Biso   1.000  C
  C840     1.0000 0.65950  0.42210  0.22430  Biso   1.000  C
  O378     1.0000 0.52810  0.23210  0.26890  Biso   1.000  O
  Gd43     1.0000 0.91137  0.74423  0.24384  Biso   1.000  Gd
  O379     1.0000 0.88280  0.79890  0.24260  Biso   1.000  O
  O380     1.0000 0.93910  0.79830  0.25520  Biso   1.000  O
  O381     1.0000 0.88340  0.74080  0.29960  Biso   1.000  O
  O382     1.0000 0.94010  0.73360  0.29970  Biso   1.000  O
  O383     1.0000 0.81860  0.73870  0.41210  Biso   1.000  O
  O384     1.0000 0.84240  0.72300  0.46210  Biso   1.000  O
  O385     1.0000 0.81860  0.91310  0.25420  Biso   1.000  O
  O386     1.0000 0.83500  0.94230  0.29950  Biso   1.000  O
  C841     1.0000 0.91120  0.81690  0.25240  Biso   1.000  C
  C842     1.0000 0.90940  0.85560  0.26150  Biso   1.000  C
  C843     1.0000 0.93910  0.86640  0.28080  Biso   1.000  C
  H337     1.0000 0.95920  0.85170  0.28360  Biso   1.000  H
  C844     1.0000 0.93750  0.90020  0.29560  Biso   1.000  C
  C845     1.0000 0.90600  0.91910  0.29310  Biso   1.000  C
  H338     1.0000 0.90460  0.94090  0.30540  Biso   1.000  H
  C846     1.0000 0.87620  0.90840  0.27410  Biso   1.000  C
  C847     1.0000 0.87830  0.87490  0.25910  Biso   1.000  C
  H339     1.0000 0.85850  0.86530  0.24710  Biso   1.000  H
  C848     1.0000 0.96940  0.91420  0.31480  Biso   1.000  C
  C849     1.0000 0.96840  0.93420  0.34560  Biso   1.000  C
  H340     1.0000 0.94720  0.93740  0.35840  Biso   1.000  H
  C850     1.0000 0.91170  0.73280  0.31530  Biso   1.000  C
  C851     1.0000 0.90790  0.72730  0.35400  Biso   1.000  C
  C852     1.0000 0.87710  0.73190  0.37330  Biso   1.000  C
  H341     1.0000 0.85710  0.74220  0.36230  Biso   1.000  H
  C853     1.0000 0.87510  0.72180  0.40850  Biso   1.000  C
  C854     1.0000 0.90490  0.70650  0.42350  Biso   1.000  C
  H342     1.0000 0.90400  0.69920  0.44750  Biso   1.000  H
  C855     1.0000 0.93610  0.70130  0.40490  Biso   1.000  C
  C856     1.0000 0.93760  0.70800  0.36890  Biso   1.000  C
  H343     1.0000 0.96030  0.70360  0.35530  Biso   1.000  H
  C857     1.0000 0.97080  0.68830  0.42100  Biso   1.000  C
  C858     1.0000 0.96990  0.67450  0.45490  Biso   1.000  C
  H344     1.0000 0.95010  0.67740  0.46980  Biso   1.000  H
  C859     1.0000 0.84250  0.72820  0.43060  Biso   1.000  C
  C860     1.0000 0.84050  0.92210  0.27570  Biso   1.000  C
  O387     1.0000 0.97190  0.73210  0.23110  Biso   1.000  O
  Gd44     1.0000 0.41137  0.24423  0.74384  Biso   1.000  Gd
  O388     1.0000 0.38280  0.29890  0.74260  Biso   1.000  O
  O389     1.0000 0.43910  0.29830  0.75520  Biso   1.000  O
  O390     1.0000 0.38340  0.24080  0.79960  Biso   1.000  O
  O391     1.0000 0.44010  0.23360  0.79970  Biso   1.000  O
  O392     1.0000 0.31860  0.23870  0.91210  Biso   1.000  O
  O393     1.0000 0.34240  0.22300  0.96210  Biso   1.000  O
  O394     1.0000 0.31860  0.41310  0.75420  Biso   1.000  O
  O395     1.0000 0.33500  0.44230  0.79950  Biso   1.000  O
  C861     1.0000 0.41120  0.31690  0.75240  Biso   1.000  C
  C862     1.0000 0.40940  0.35560  0.76150  Biso   1.000  C
  C863     1.0000 0.43910  0.36640  0.78080  Biso   1.000  C
  H345     1.0000 0.45920  0.35170  0.78360  Biso   1.000  H
  C864     1.0000 0.43750  0.40020  0.79560  Biso   1.000  C
  C865     1.0000 0.40600  0.41910  0.79310  Biso   1.000  C
  H346     1.0000 0.40460  0.44090  0.80540  Biso   1.000  H
  C866     1.0000 0.37620  0.40840  0.77410  Biso   1.000  C
  C867     1.0000 0.37830  0.37490  0.75910  Biso   1.000  C
  H347     1.0000 0.35850  0.36530  0.74710  Biso   1.000  H
  C868     1.0000 0.46940  0.41420  0.81480  Biso   1.000  C
  C869     1.0000 0.46840  0.43420  0.84560  Biso   1.000  C
  H348     1.0000 0.44720  0.43740  0.85840  Biso   1.000  H
  C870     1.0000 0.41170  0.23280  0.81530  Biso   1.000  C
  C871     1.0000 0.40790  0.22730  0.85400  Biso   1.000  C
  C872     1.0000 0.37710  0.23190  0.87330  Biso   1.000  C
  H349     1.0000 0.35710  0.24220  0.86230  Biso   1.000  H
  C873     1.0000 0.37510  0.22180  0.90850  Biso   1.000  C
  C874     1.0000 0.40490  0.20650  0.92350  Biso   1.000  C
  H350     1.0000 0.40400  0.19920  0.94750  Biso   1.000  H
  C875     1.0000 0.43610  0.20130  0.90490  Biso   1.000  C
  C876     1.0000 0.43760  0.20800  0.86890  Biso   1.000  C
  H351     1.0000 0.46030  0.20360  0.85530  Biso   1.000  H
  C877     1.0000 0.47080  0.18830  0.92100  Biso   1.000  C
  C878     1.0000 0.46990  0.17450  0.95490  Biso   1.000  C
  H352     1.0000 0.45010  0.17740  0.96980  Biso   1.000  H
  C879     1.0000 0.34250  0.22820  0.93060  Biso   1.000  C
  C880     1.0000 0.34050  0.42210  0.77570  Biso   1.000  C
  O396     1.0000 0.47190  0.23210  0.73110  Biso   1.000  O
  Gd45     1.0000 0.08863  0.25577  0.24384  Biso   1.000  Gd
  O397     1.0000 0.11720  0.20110  0.24260  Biso   1.000  O
  O398     1.0000 0.06090  0.20170  0.25520  Biso   1.000  O
  O399     1.0000 0.11660  0.25920  0.29960  Biso   1.000  O
  O400     1.0000 0.05990  0.26640  0.29970  Biso   1.000  O
  O401     1.0000 0.18140  0.26130  0.41210  Biso   1.000  O
  O402     1.0000 0.15760  0.27700  0.46210  Biso   1.000  O
  O403     1.0000 0.18140  0.08690  0.25420  Biso   1.000  O
  O404     1.0000 0.16500  0.05770  0.29950  Biso   1.000  O
  C881     1.0000 0.08880  0.18310  0.25240  Biso   1.000  C
  C882     1.0000 0.09060  0.14440  0.26150  Biso   1.000  C
  C883     1.0000 0.06090  0.13360  0.28080  Biso   1.000  C
  H353     1.0000 0.04080  0.14830  0.28360  Biso   1.000  H
  C884     1.0000 0.06250  0.09980  0.29560  Biso   1.000  C
  C885     1.0000 0.09400  0.08090  0.29310  Biso   1.000  C
  H354     1.0000 0.09540  0.05910  0.30540  Biso   1.000  H
  C886     1.0000 0.12380  0.09160  0.27410  Biso   1.000  C
  C887     1.0000 0.12170  0.12510  0.25910  Biso   1.000  C
  H355     1.0000 0.14150  0.13470  0.24710  Biso   1.000  H
  C888     1.0000 0.03060  0.08580  0.31480  Biso   1.000  C
  C889     1.0000 0.03160  0.06580  0.34560  Biso   1.000  C
  H356     1.0000 0.05280  0.06260  0.35840  Biso   1.000  H
  C890     1.0000 0.08830  0.26720  0.31530  Biso   1.000  C
  C891     1.0000 0.09210  0.27270  0.35400  Biso   1.000  C
  C892     1.0000 0.12290  0.26810  0.37330  Biso   1.000  C
  H357     1.0000 0.14290  0.25780  0.36230  Biso   1.000  H
  C893     1.0000 0.12490  0.27820  0.40850  Biso   1.000  C
  C894     1.0000 0.09510  0.29350  0.42350  Biso   1.000  C
  H358     1.0000 0.09600  0.30080  0.44750  Biso   1.000  H
  C895     1.0000 0.06390  0.29870  0.40490  Biso   1.000  C
  C896     1.0000 0.06240  0.29200  0.36890  Biso   1.000  C
  H359     1.0000 0.03970  0.29640  0.35530  Biso   1.000  H
  C897     1.0000 0.02920  0.31170  0.42100  Biso   1.000  C
  C898     1.0000 0.03010  0.32550  0.45490  Biso   1.000  C
  H360     1.0000 0.04990  0.32260  0.46980  Biso   1.000  H
  C899     1.0000 0.15750  0.27180  0.43060  Biso   1.000  C
  C900     1.0000 0.15950  0.07790  0.27570  Biso   1.000  C
  O405     1.0000 0.02810  0.26790  0.23110  Biso   1.000  O
  Gd46     1.0000 0.58863  0.75577  0.74384  Biso   1.000  Gd
  O406     1.0000 0.61720  0.70110  0.74260  Biso   1.000  O
  O407     1.0000 0.56090  0.70170  0.75520  Biso   1.000  O
  O408     1.0000 0.61660  0.75920  0.79960  Biso   1.000  O
  O409     1.0000 0.55990  0.76640  0.79970  Biso   1.000  O
  O410     1.0000 0.68140  0.76130  0.91210  Biso   1.000  O
  O411     1.0000 0.65760  0.77700  0.96210  Biso   1.000  O
  O412     1.0000 0.68140  0.58690  0.75420  Biso   1.000  O
  O413     1.0000 0.66500  0.55770  0.79950  Biso   1.000  O
  C901     1.0000 0.58880  0.68310  0.75240  Biso   1.000  C
  C902     1.0000 0.59060  0.64440  0.76150  Biso   1.000  C
  C903     1.0000 0.56090  0.63360  0.78080  Biso   1.000  C
  H361     1.0000 0.54080  0.64830  0.78360  Biso   1.000  H
  C904     1.0000 0.56250  0.59980  0.79560  Biso   1.000  C
  C905     1.0000 0.59400  0.58090  0.79310  Biso   1.000  C
  H362     1.0000 0.59540  0.55910  0.80540  Biso   1.000  H
  C906     1.0000 0.62380  0.59160  0.77410  Biso   1.000  C
  C907     1.0000 0.62170  0.62510  0.75910  Biso   1.000  C
  H363     1.0000 0.64150  0.63470  0.74710  Biso   1.000  H
  C908     1.0000 0.53060  0.58580  0.81480  Biso   1.000  C
  C909     1.0000 0.53160  0.56580  0.84560  Biso   1.000  C
  H364     1.0000 0.55280  0.56260  0.85840  Biso   1.000  H
  C910     1.0000 0.58830  0.76720  0.81530  Biso   1.000  C
  C911     1.0000 0.59210  0.77270  0.85400  Biso   1.000  C
  C912     1.0000 0.62290  0.76810  0.87330  Biso   1.000  C
  H365     1.0000 0.64290  0.75780  0.86230  Biso   1.000  H
  C913     1.0000 0.62490  0.77820  0.90850  Biso   1.000  C
  C914     1.0000 0.59510  0.79350  0.92350  Biso   1.000  C
  H366     1.0000 0.59600  0.80080  0.94750  Biso   1.000  H
  C915     1.0000 0.56390  0.79870  0.90490  Biso   1.000  C
  C916     1.0000 0.56240  0.79200  0.86890  Biso   1.000  C
  H367     1.0000 0.53970  0.79640  0.85530  Biso   1.000  H
  C917     1.0000 0.52920  0.81170  0.92100  Biso   1.000  C
  C918     1.0000 0.53010  0.82550  0.95490  Biso   1.000  C
  H368     1.0000 0.54990  0.82260  0.96980  Biso   1.000  H
  C919     1.0000 0.65750  0.77180  0.93060  Biso   1.000  C
  C920     1.0000 0.65950  0.57790  0.77570  Biso   1.000  C
  O414     1.0000 0.52810  0.76790  0.73110  Biso   1.000  O
  Gd47     1.0000 0.91137  0.25577  0.75616  Biso   1.000  Gd
  O415     1.0000 0.88280  0.20110  0.75740  Biso   1.000  O
  O416     1.0000 0.93910  0.20170  0.74480  Biso   1.000  O
  O417     1.0000 0.88340  0.25920  0.70040  Biso   1.000  O
  O418     1.0000 0.94010  0.26640  0.70030  Biso   1.000  O
  O419     1.0000 0.81860  0.26130  0.58790  Biso   1.000  O
  O420     1.0000 0.84240  0.27700  0.53790  Biso   1.000  O
  O421     1.0000 0.81860  0.08690  0.74580  Biso   1.000  O
  O422     1.0000 0.83500  0.05770  0.70050  Biso   1.000  O
  C921     1.0000 0.91120  0.18310  0.74760  Biso   1.000  C
  C922     1.0000 0.90940  0.14440  0.73850  Biso   1.000  C
  C923     1.0000 0.93910  0.13360  0.71920  Biso   1.000  C
  H369     1.0000 0.95920  0.14830  0.71640  Biso   1.000  H
  C924     1.0000 0.93750  0.09980  0.70440  Biso   1.000  C
  C925     1.0000 0.90600  0.08090  0.70690  Biso   1.000  C
  H370     1.0000 0.90460  0.05910  0.69460  Biso   1.000  H
  C926     1.0000 0.87620  0.09160  0.72590  Biso   1.000  C
  C927     1.0000 0.87830  0.12510  0.74090  Biso   1.000  C
  H371     1.0000 0.85850  0.13470  0.75290  Biso   1.000  H
  C928     1.0000 0.96940  0.08580  0.68520  Biso   1.000  C
  C929     1.0000 0.96840  0.06580  0.65440  Biso   1.000  C
  H372     1.0000 0.94720  0.06260  0.64160  Biso   1.000  H
  C930     1.0000 0.91170  0.26720  0.68470  Biso   1.000  C
  C931     1.0000 0.90790  0.27270  0.64600  Biso   1.000  C
  C932     1.0000 0.87710  0.26810  0.62670  Biso   1.000  C
  H373     1.0000 0.85710  0.25780  0.63770  Biso   1.000  H
  C933     1.0000 0.87510  0.27820  0.59150  Biso   1.000  C
  C934     1.0000 0.90490  0.29350  0.57650  Biso   1.000  C
  H374     1.0000 0.90400  0.30080  0.55250  Biso   1.000  H
  C935     1.0000 0.93610  0.29870  0.59510  Biso   1.000  C
  C936     1.0000 0.93760  0.29200  0.63110  Biso   1.000  C
  H375     1.0000 0.96030  0.29640  0.64470  Biso   1.000  H
  C937     1.0000 0.97080  0.31170  0.57900  Biso   1.000  C
  C938     1.0000 0.96990  0.32550  0.54510  Biso   1.000  C
  H376     1.0000 0.95010  0.32260  0.53020  Biso   1.000  H
  C939     1.0000 0.84250  0.27180  0.56940  Biso   1.000  C
  C940     1.0000 0.84050  0.07790  0.72430  Biso   1.000  C
  O423     1.0000 0.97190  0.26790  0.76890  Biso   1.000  O
  Gd48     1.0000 0.41137  0.75577  0.25616  Biso   1.000  Gd
  O424     1.0000 0.38280  0.70110  0.25740  Biso   1.000  O
  O425     1.0000 0.43910  0.70170  0.24480  Biso   1.000  O
  O426     1.0000 0.38340  0.75920  0.20040  Biso   1.000  O
  O427     1.0000 0.44010  0.76640  0.20030  Biso   1.000  O
  O428     1.0000 0.31860  0.76130  0.08790  Biso   1.000  O
  O429     1.0000 0.34240  0.77700  0.03790  Biso   1.000  O
  O430     1.0000 0.31860  0.58690  0.24580  Biso   1.000  O
  O431     1.0000 0.33500  0.55770  0.20050  Biso   1.000  O
  C941     1.0000 0.41120  0.68310  0.24760  Biso   1.000  C
  C942     1.0000 0.40940  0.64440  0.23850  Biso   1.000  C
  C943     1.0000 0.43910  0.63360  0.21920  Biso   1.000  C
  H377     1.0000 0.45920  0.64830  0.21640  Biso   1.000  H
  C944     1.0000 0.43750  0.59980  0.20440  Biso   1.000  C
  C945     1.0000 0.40600  0.58090  0.20690  Biso   1.000  C
  H378     1.0000 0.40460  0.55910  0.19460  Biso   1.000  H
  C946     1.0000 0.37620  0.59160  0.22590  Biso   1.000  C
  C947     1.0000 0.37830  0.62510  0.24090  Biso   1.000  C
  H379     1.0000 0.35850  0.63470  0.25290  Biso   1.000  H
  C948     1.0000 0.46940  0.58580  0.18520  Biso   1.000  C
  C949     1.0000 0.46840  0.56580  0.15440  Biso   1.000  C
  H380     1.0000 0.44720  0.56260  0.14160  Biso   1.000  H
  C950     1.0000 0.41170  0.76720  0.18470  Biso   1.000  C
  C951     1.0000 0.40790  0.77270  0.14600  Biso   1.000  C
  C952     1.0000 0.37710  0.76810  0.12670  Biso   1.000  C
  H381     1.0000 0.35710  0.75780  0.13770  Biso   1.000  H
  C953     1.0000 0.37510  0.77820  0.09150  Biso   1.000  C
  C954     1.0000 0.40490  0.79350  0.07650  Biso   1.000  C
  H382     1.0000 0.40400  0.80080  0.05250  Biso   1.000  H
  C955     1.0000 0.43610  0.79870  0.09510  Biso   1.000  C
  C956     1.0000 0.43760  0.79200  0.13110  Biso   1.000  C
  H383     1.0000 0.46030  0.79640  0.14470  Biso   1.000  H
  C957     1.0000 0.47080  0.81170  0.07900  Biso   1.000  C
  C958     1.0000 0.46990  0.82550  0.04510  Biso   1.000  C
  H384     1.0000 0.45010  0.82260  0.03020  Biso   1.000  H
  C959     1.0000 0.34250  0.77180  0.06940  Biso   1.000  C
  C960     1.0000 0.34050  0.57790  0.22430  Biso   1.000  C
  O432     1.0000 0.47190  0.76790  0.26890  Biso   1.000  O
  Gd49     1.0000 0.18663  0.00000  0.30957  Biso   1.000  Gd
  O433     1.0000 0.12470  0.00000  0.33720  Biso   1.000  O
  O434     1.0000 0.15860  0.00000  0.37090  Biso   1.000  O
  C961     1.0000 0.35670  0.00000  0.05060  Biso   1.000  C
  H385     1.0000 0.37160  0.00000  0.03050  Biso   1.000  H
  C962     1.0000 0.46920  0.00000  0.34090  Biso   1.000  C
  H386     1.0000 0.48810  0.00000  0.35730  Biso   1.000  H
  C963     1.0000 0.24210  0.00000  0.25500  Biso   1.000  C
  H387     1.0000 0.25870  0.00000  0.23620  Biso   1.000  H
  N1       1.0000 0.30010  0.00000  0.09700  Biso   1.000  N
  N2       1.0000 0.40120  0.00000  0.31030  Biso   1.000  N
  C964     1.0000 0.12690  0.00000  0.37110  Biso   1.000  C
  H388     1.0000 0.10980  0.00000  0.38940  Biso   1.000  H
  Gd50     1.0000 0.68663  0.50000  0.80957  Biso   1.000  Gd
  O435     1.0000 0.62470  0.50000  0.83720  Biso   1.000  O
  O436     1.0000 0.65860  0.50000  0.87090  Biso   1.000  O
  C965     1.0000 0.85670  0.50000  0.55060  Biso   1.000  C
  H389     1.0000 0.87160  0.50000  0.53050  Biso   1.000  H
  C966     1.0000 0.96920  0.50000  0.84090  Biso   1.000  C
  H390     1.0000 0.98810  0.50000  0.85730  Biso   1.000  H
  C967     1.0000 0.74210  0.50000  0.75500  Biso   1.000  C
  H391     1.0000 0.75870  0.50000  0.73620  Biso   1.000  H
  N3       1.0000 0.80010  0.50000  0.59700  Biso   1.000  N
  N4       1.0000 0.90120  0.50000  0.81030  Biso   1.000  N
  C968     1.0000 0.62690  0.50000  0.87110  Biso   1.000  C
  H392     1.0000 0.60980  0.50000  0.88940  Biso   1.000  H
  Gd51     1.0000 0.81337  0.00000  0.30957  Biso   1.000  Gd
  O437     1.0000 0.87530  0.00000  0.33720  Biso   1.000  O
  O438     1.0000 0.84140  0.00000  0.37090  Biso   1.000  O
  C969     1.0000 0.64330  0.00000  0.05060  Biso   1.000  C
  H393     1.0000 0.62840  0.00000  0.03050  Biso   1.000  H
  C970     1.0000 0.53080  0.00000  0.34090  Biso   1.000  C
  H394     1.0000 0.51190  0.00000  0.35730  Biso   1.000  H
  C971     1.0000 0.75790  0.00000  0.25500  Biso   1.000  C
  H395     1.0000 0.74130  0.00000  0.23620  Biso   1.000  H
  N5       1.0000 0.69990  0.00000  0.09700  Biso   1.000  N
  N6       1.0000 0.59880  0.00000  0.31030  Biso   1.000  N
  C972     1.0000 0.87310  0.00000  0.37110  Biso   1.000  C
  H396     1.0000 0.89020  0.00000  0.38940  Biso   1.000  H
  Gd52     1.0000 0.31337  0.50000  0.80957  Biso   1.000  Gd
  O439     1.0000 0.37530  0.50000  0.83720  Biso   1.000  O
  O440     1.0000 0.34140  0.50000  0.87090  Biso   1.000  O
  C973     1.0000 0.14330  0.50000  0.55060  Biso   1.000  C
  H397     1.0000 0.12840  0.50000  0.53050  Biso   1.000  H
  C974     1.0000 0.03080  0.50000  0.84090  Biso   1.000  C
  H398     1.0000 0.01190  0.50000  0.85730  Biso   1.000  H
  C975     1.0000 0.25790  0.50000  0.75500  Biso   1.000  C
  H399     1.0000 0.24130  0.50000  0.73620  Biso   1.000  H
  N7       1.0000 0.19990  0.50000  0.59700  Biso   1.000  N
  N8       1.0000 0.09880  0.50000  0.81030  Biso   1.000  N
  C976     1.0000 0.37310  0.50000  0.87110  Biso   1.000  C
  H400     1.0000 0.39020  0.50000  0.88940  Biso   1.000  H
  Gd53     1.0000 0.81337  0.00000  0.69043  Biso   1.000  Gd
  O441     1.0000 0.87530  0.00000  0.66280  Biso   1.000  O
  O442     1.0000 0.84140  0.00000  0.62910  Biso   1.000  O
  C977     1.0000 0.64330  0.00000  0.94940  Biso   1.000  C
  H401     1.0000 0.62840  0.00000  0.96950  Biso   1.000  H
  C978     1.0000 0.53080  0.00000  0.65910  Biso   1.000  C
  H402     1.0000 0.51190  0.00000  0.64270  Biso   1.000  H
  C979     1.0000 0.75790  0.00000  0.74500  Biso   1.000  C
  H403     1.0000 0.74130  0.00000  0.76380  Biso   1.000  H
  N9       1.0000 0.69990  0.00000  0.90300  Biso   1.000  N
  N10      1.0000 0.59880  0.00000  0.68970  Biso   1.000  N
  C980     1.0000 0.87310  0.00000  0.62890  Biso   1.000  C
  H404     1.0000 0.89020  0.00000  0.61060  Biso   1.000  H
  Gd54     1.0000 0.31337  0.50000  0.19043  Biso   1.000  Gd
  O443     1.0000 0.37530  0.50000  0.16280  Biso   1.000  O
  O444     1.0000 0.34140  0.50000  0.12910  Biso   1.000  O
  C981     1.0000 0.14330  0.50000  0.44940  Biso   1.000  C
  H405     1.0000 0.12840  0.50000  0.46950  Biso   1.000  H
  C982     1.0000 0.03080  0.50000  0.15910  Biso   1.000  C
  H406     1.0000 0.01190  0.50000  0.14270  Biso   1.000  H
  C983     1.0000 0.25790  0.50000  0.24500  Biso   1.000  C
  H407     1.0000 0.24130  0.50000  0.26380  Biso   1.000  H
  N11      1.0000 0.19990  0.50000  0.40300  Biso   1.000  N
  N12      1.0000 0.09880  0.50000  0.18970  Biso   1.000  N
  C984     1.0000 0.37310  0.50000  0.12890  Biso   1.000  C
  H408     1.0000 0.39020  0.50000  0.11060  Biso   1.000  H
  Gd55     1.0000 0.18663  0.00000  0.69043  Biso   1.000  Gd
  O445     1.0000 0.12470  0.00000  0.66280  Biso   1.000  O
  O446     1.0000 0.15860  0.00000  0.62910  Biso   1.000  O
  C985     1.0000 0.35670  0.00000  0.94940  Biso   1.000  C
  H409     1.0000 0.37160  0.00000  0.96950  Biso   1.000  H
  C986     1.0000 0.46920  0.00000  0.65910  Biso   1.000  C
  H410     1.0000 0.48810  0.00000  0.64270  Biso   1.000  H
  C987     1.0000 0.24210  0.00000  0.74500  Biso   1.000  C
  H411     1.0000 0.25870  0.00000  0.76380  Biso   1.000  H
  N13      1.0000 0.30010  0.00000  0.90300  Biso   1.000  N
  N14      1.0000 0.40120  0.00000  0.68970  Biso   1.000  N
  C988     1.0000 0.12690  0.00000  0.62890  Biso   1.000  C
  H412     1.0000 0.10980  0.00000  0.61060  Biso   1.000  H
  Gd56     1.0000 0.68663  0.50000  0.19043  Biso   1.000  Gd
  O447     1.0000 0.62470  0.50000  0.16280  Biso   1.000  O
  O448     1.0000 0.65860  0.50000  0.12910  Biso   1.000  O
  C989     1.0000 0.85670  0.50000  0.44940  Biso   1.000  C
  H413     1.0000 0.87160  0.50000  0.46950  Biso   1.000  H
  C990     1.0000 0.96920  0.50000  0.15910  Biso   1.000  C
  H414     1.0000 0.98810  0.50000  0.14270  Biso   1.000  H
  C991     1.0000 0.74210  0.50000  0.24500  Biso   1.000  C
  H415     1.0000 0.75870  0.50000  0.26380  Biso   1.000  H
  N15      1.0000 0.80010  0.50000  0.40300  Biso   1.000  N
  N16      1.0000 0.90120  0.50000  0.18970  Biso   1.000  N
  C992     1.0000 0.62690  0.50000  0.12890  Biso   1.000  C
  H416     1.0000 0.60980  0.50000  0.11060  Biso   1.000  H
  Gd57     1.0000 0.30957  0.18663  0.00000  Biso   1.000  Gd
  O449     1.0000 0.33720  0.12470  0.00000  Biso   1.000  O
  O450     1.0000 0.37090  0.15860  0.00000  Biso   1.000  O
  C993     1.0000 0.05060  0.35670  0.00000  Biso   1.000  C
  H417     1.0000 0.03050  0.37160  0.00000  Biso   1.000  H
  C994     1.0000 0.34090  0.46920  0.00000  Biso   1.000  C
  H418     1.0000 0.35730  0.48810  0.00000  Biso   1.000  H
  C995     1.0000 0.25500  0.24210  0.00000  Biso   1.000  C
  H419     1.0000 0.23620  0.25870  0.00000  Biso   1.000  H
  N17      1.0000 0.09700  0.30010  0.00000  Biso   1.000  N
  N18      1.0000 0.31030  0.40120  0.00000  Biso   1.000  N
  C996     1.0000 0.37110  0.12690  0.00000  Biso   1.000  C
  H420     1.0000 0.38940  0.10980  0.00000  Biso   1.000  H
  Gd58     1.0000 0.80957  0.68663  0.50000  Biso   1.000  Gd
  O451     1.0000 0.83720  0.62470  0.50000  Biso   1.000  O
  O452     1.0000 0.87090  0.65860  0.50000  Biso   1.000  O
  C997     1.0000 0.55060  0.85670  0.50000  Biso   1.000  C
  H421     1.0000 0.53050  0.87160  0.50000  Biso   1.000  H
  C998     1.0000 0.84090  0.96920  0.50000  Biso   1.000  C
  H422     1.0000 0.85730  0.98810  0.50000  Biso   1.000  H
  C999     1.0000 0.75500  0.74210  0.50000  Biso   1.000  C
  H423     1.0000 0.73620  0.75870  0.50000  Biso   1.000  H
  N19      1.0000 0.59700  0.80010  0.50000  Biso   1.000  N
  N20      1.0000 0.81030  0.90120  0.50000  Biso   1.000  N
  C1000    1.0000 0.87110  0.62690  0.50000  Biso   1.000  C
  H424     1.0000 0.88940  0.60980  0.50000  Biso   1.000  H
  Gd59     1.0000 0.30957  0.81337  0.00000  Biso   1.000  Gd
  O453     1.0000 0.33720  0.87530  0.00000  Biso   1.000  O
  O454     1.0000 0.37090  0.84140  0.00000  Biso   1.000  O
  C1001    1.0000 0.05060  0.64330  0.00000  Biso   1.000  C
  H425     1.0000 0.03050  0.62840  0.00000  Biso   1.000  H
  C1002    1.0000 0.34090  0.53080  0.00000  Biso   1.000  C
  H426     1.0000 0.35730  0.51190  0.00000  Biso   1.000  H
  C1003    1.0000 0.25500  0.75790  0.00000  Biso   1.000  C
  H427     1.0000 0.23620  0.74130  0.00000  Biso   1.000  H
  N21      1.0000 0.09700  0.69990  0.00000  Biso   1.000  N
  N22      1.0000 0.31030  0.59880  0.00000  Biso   1.000  N
  C1004    1.0000 0.37110  0.87310  0.00000  Biso   1.000  C
  H428     1.0000 0.38940  0.89020  0.00000  Biso   1.000  H
  Gd60     1.0000 0.80957  0.31337  0.50000  Biso   1.000  Gd
  O455     1.0000 0.83720  0.37530  0.50000  Biso   1.000  O
  O456     1.0000 0.87090  0.34140  0.50000  Biso   1.000  O
  C1005    1.0000 0.55060  0.14330  0.50000  Biso   1.000  C
  H429     1.0000 0.53050  0.12840  0.50000  Biso   1.000  H
  C1006    1.0000 0.84090  0.03080  0.50000  Biso   1.000  C
  H430     1.0000 0.85730  0.01190  0.50000  Biso   1.000  H
  C1007    1.0000 0.75500  0.25790  0.50000  Biso   1.000  C
  H431     1.0000 0.73620  0.24130  0.50000  Biso   1.000  H
  N23      1.0000 0.59700  0.19990  0.50000  Biso   1.000  N
  N24      1.0000 0.81030  0.09880  0.50000  Biso   1.000  N
  C1008    1.0000 0.87110  0.37310  0.50000  Biso   1.000  C
  H432     1.0000 0.88940  0.39020  0.50000  Biso   1.000  H
  Gd61     1.0000 0.69043  0.81337  0.00000  Biso   1.000  Gd
  O457     1.0000 0.66280  0.87530  0.00000  Biso   1.000  O
  O458     1.0000 0.62910  0.84140  0.00000  Biso   1.000  O
  C1009    1.0000 0.94940  0.64330  0.00000  Biso   1.000  C
  H433     1.0000 0.96950  0.62840  0.00000  Biso   1.000  H
  C1010    1.0000 0.65910  0.53080  0.00000  Biso   1.000  C
  H434     1.0000 0.64270  0.51190  0.00000  Biso   1.000  H
  C1011    1.0000 0.74500  0.75790  0.00000  Biso   1.000  C
  H435     1.0000 0.76380  0.74130  0.00000  Biso   1.000  H
  N25      1.0000 0.90300  0.69990  0.00000  Biso   1.000  N
  N26      1.0000 0.68970  0.59880  0.00000  Biso   1.000  N
  C1012    1.0000 0.62890  0.87310  0.00000  Biso   1.000  C
  H436     1.0000 0.61060  0.89020  0.00000  Biso   1.000  H
  Gd62     1.0000 0.19043  0.31337  0.50000  Biso   1.000  Gd
  O459     1.0000 0.16280  0.37530  0.50000  Biso   1.000  O
  O460     1.0000 0.12910  0.34140  0.50000  Biso   1.000  O
  C1013    1.0000 0.44940  0.14330  0.50000  Biso   1.000  C
  H437     1.0000 0.46950  0.12840  0.50000  Biso   1.000  H
  C1014    1.0000 0.15910  0.03080  0.50000  Biso   1.000  C
  H438     1.0000 0.14270  0.01190  0.50000  Biso   1.000  H
  C1015    1.0000 0.24500  0.25790  0.50000  Biso   1.000  C
  H439     1.0000 0.26380  0.24130  0.50000  Biso   1.000  H
  N27      1.0000 0.40300  0.19990  0.50000  Biso   1.000  N
  N28      1.0000 0.18970  0.09880  0.50000  Biso   1.000  N
  C1016    1.0000 0.12890  0.37310  0.50000  Biso   1.000  C
  H440     1.0000 0.11060  0.39020  0.50000  Biso   1.000  H
  Gd63     1.0000 0.69043  0.18663  0.00000  Biso   1.000  Gd
  O461     1.0000 0.66280  0.12470  0.00000  Biso   1.000  O
  O462     1.0000 0.62910  0.15860  0.00000  Biso   1.000  O
  C1017    1.0000 0.94940  0.35670  0.00000  Biso   1.000  C
  H441     1.0000 0.96950  0.37160  0.00000  Biso   1.000  H
  C1018    1.0000 0.65910  0.46920  0.00000  Biso   1.000  C
  H442     1.0000 0.64270  0.48810  0.00000  Biso   1.000  H
  C1019    1.0000 0.74500  0.24210  0.00000  Biso   1.000  C
  H443     1.0000 0.76380  0.25870  0.00000  Biso   1.000  H
  N29      1.0000 0.90300  0.30010  0.00000  Biso   1.000  N
  N30      1.0000 0.68970  0.40120  0.00000  Biso   1.000  N
  C1020    1.0000 0.62890  0.12690  0.00000  Biso   1.000  C
  H444     1.0000 0.61060  0.10980  0.00000  Biso   1.000  H
  Gd64     1.0000 0.19043  0.68663  0.50000  Biso   1.000  Gd
  O463     1.0000 0.16280  0.62470  0.50000  Biso   1.000  O
  O464     1.0000 0.12910  0.65860  0.50000  Biso   1.000  O
  C1021    1.0000 0.44940  0.85670  0.50000  Biso   1.000  C
  H445     1.0000 0.46950  0.87160  0.50000  Biso   1.000  H
  C1022    1.0000 0.15910  0.96920  0.50000  Biso   1.000  C
  H446     1.0000 0.14270  0.98810  0.50000  Biso   1.000  H
  C1023    1.0000 0.24500  0.74210  0.50000  Biso   1.000  C
  H447     1.0000 0.26380  0.75870  0.50000  Biso   1.000  H
  N31      1.0000 0.40300  0.80010  0.50000  Biso   1.000  N
  N32      1.0000 0.18970  0.90120  0.50000  Biso   1.000  N
  C1024    1.0000 0.12890  0.62690  0.50000  Biso   1.000  C
  H448     1.0000 0.11060  0.60980  0.50000  Biso   1.000  H
  Gd65     1.0000 0.00000  0.30957  0.18663  Biso   1.000  Gd
  O465     1.0000 0.00000  0.33720  0.12470  Biso   1.000  O
  O466     1.0000 0.00000  0.37090  0.15860  Biso   1.000  O
  C1025    1.0000 0.00000  0.05060  0.35670  Biso   1.000  C
  H449     1.0000 0.00000  0.03050  0.37160  Biso   1.000  H
  C1026    1.0000 0.00000  0.34090  0.46920  Biso   1.000  C
  H450     1.0000 0.00000  0.35730  0.48810  Biso   1.000  H
  C1027    1.0000 0.00000  0.25500  0.24210  Biso   1.000  C
  H451     1.0000 0.00000  0.23620  0.25870  Biso   1.000  H
  N33      1.0000 0.00000  0.09700  0.30010  Biso   1.000  N
  N34      1.0000 0.00000  0.31030  0.40120  Biso   1.000  N
  C1028    1.0000 0.00000  0.37110  0.12690  Biso   1.000  C
  H452     1.0000 0.00000  0.38940  0.10980  Biso   1.000  H
  Gd66     1.0000 0.50000  0.80957  0.68663  Biso   1.000  Gd
  O467     1.0000 0.50000  0.83720  0.62470  Biso   1.000  O
  O468     1.0000 0.50000  0.87090  0.65860  Biso   1.000  O
  C1029    1.0000 0.50000  0.55060  0.85670  Biso   1.000  C
  H453     1.0000 0.50000  0.53050  0.87160  Biso   1.000  H
  C1030    1.0000 0.50000  0.84090  0.96920  Biso   1.000  C
  H454     1.0000 0.50000  0.85730  0.98810  Biso   1.000  H
  C1031    1.0000 0.50000  0.75500  0.74210  Biso   1.000  C
  H455     1.0000 0.50000  0.73620  0.75870  Biso   1.000  H
  N35      1.0000 0.50000  0.59700  0.80010  Biso   1.000  N
  N36      1.0000 0.50000  0.81030  0.90120  Biso   1.000  N
  C1032    1.0000 0.50000  0.87110  0.62690  Biso   1.000  C
  H456     1.0000 0.50000  0.88940  0.60980  Biso   1.000  H
  Gd67     1.0000 0.00000  0.30957  0.81337  Biso   1.000  Gd
  O469     1.0000 0.00000  0.33720  0.87530  Biso   1.000  O
  O470     1.0000 0.00000  0.37090  0.84140  Biso   1.000  O
  C1033    1.0000 0.00000  0.05060  0.64330  Biso   1.000  C
  H457     1.0000 0.00000  0.03050  0.62840  Biso   1.000  H
  C1034    1.0000 0.00000  0.34090  0.53080  Biso   1.000  C
  H458     1.0000 0.00000  0.35730  0.51190  Biso   1.000  H
  C1035    1.0000 0.00000  0.25500  0.75790  Biso   1.000  C
  H459     1.0000 0.00000  0.23620  0.74130  Biso   1.000  H
  N37      1.0000 0.00000  0.09700  0.69990  Biso   1.000  N
  N38      1.0000 0.00000  0.31030  0.59880  Biso   1.000  N
  C1036    1.0000 0.00000  0.37110  0.87310  Biso   1.000  C
  H460     1.0000 0.00000  0.38940  0.89020  Biso   1.000  H
  Gd68     1.0000 0.50000  0.80957  0.31337  Biso   1.000  Gd
  O471     1.0000 0.50000  0.83720  0.37530  Biso   1.000  O
  O472     1.0000 0.50000  0.87090  0.34140  Biso   1.000  O
  C1037    1.0000 0.50000  0.55060  0.14330  Biso   1.000  C
  H461     1.0000 0.50000  0.53050  0.12840  Biso   1.000  H
  C1038    1.0000 0.50000  0.84090  0.03080  Biso   1.000  C
  H462     1.0000 0.50000  0.85730  0.01190  Biso   1.000  H
  C1039    1.0000 0.50000  0.75500  0.25790  Biso   1.000  C
  H463     1.0000 0.50000  0.73620  0.24130  Biso   1.000  H
  N39      1.0000 0.50000  0.59700  0.19990  Biso   1.000  N
  N40      1.0000 0.50000  0.81030  0.09880  Biso   1.000  N
  C1040    1.0000 0.50000  0.87110  0.37310  Biso   1.000  C
  H464     1.0000 0.50000  0.88940  0.39020  Biso   1.000  H
  Gd69     1.0000 0.00000  0.69043  0.81337  Biso   1.000  Gd
  O473     1.0000 0.00000  0.66280  0.87530  Biso   1.000  O
  O474     1.0000 0.00000  0.62910  0.84140  Biso   1.000  O
  C1041    1.0000 0.00000  0.94940  0.64330  Biso   1.000  C
  H465     1.0000 0.00000  0.96950  0.62840  Biso   1.000  H
  C1042    1.0000 0.00000  0.65910  0.53080  Biso   1.000  C
  H466     1.0000 0.00000  0.64270  0.51190  Biso   1.000  H
  C1043    1.0000 0.00000  0.74500  0.75790  Biso   1.000  C
  H467     1.0000 0.00000  0.76380  0.74130  Biso   1.000  H
  N41      1.0000 0.00000  0.90300  0.69990  Biso   1.000  N
  N42      1.0000 0.00000  0.68970  0.59880  Biso   1.000  N
  C1044    1.0000 0.00000  0.62890  0.87310  Biso   1.000  C
  H468     1.0000 0.00000  0.61060  0.89020  Biso   1.000  H
  Gd70     1.0000 0.50000  0.19043  0.31337  Biso   1.000  Gd
  O475     1.0000 0.50000  0.16280  0.37530  Biso   1.000  O
  O476     1.0000 0.50000  0.12910  0.34140  Biso   1.000  O
  C1045    1.0000 0.50000  0.44940  0.14330  Biso   1.000  C
  H469     1.0000 0.50000  0.46950  0.12840  Biso   1.000  H
  C1046    1.0000 0.50000  0.15910  0.03080  Biso   1.000  C
  H470     1.0000 0.50000  0.14270  0.01190  Biso   1.000  H
  C1047    1.0000 0.50000  0.24500  0.25790  Biso   1.000  C
  H471     1.0000 0.50000  0.26380  0.24130  Biso   1.000  H
  N43      1.0000 0.50000  0.40300  0.19990  Biso   1.000  N
  N44      1.0000 0.50000  0.18970  0.09880  Biso   1.000  N
  C1048    1.0000 0.50000  0.12890  0.37310  Biso   1.000  C
  H472     1.0000 0.50000  0.11060  0.39020  Biso   1.000  H
  Gd71     1.0000 0.00000  0.69043  0.18663  Biso   1.000  Gd
  O477     1.0000 0.00000  0.66280  0.12470  Biso   1.000  O
  O478     1.0000 0.00000  0.62910  0.15860  Biso   1.000  O
  C1049    1.0000 0.00000  0.94940  0.35670  Biso   1.000  C
  H473     1.0000 0.00000  0.96950  0.37160  Biso   1.000  H
  C1050    1.0000 0.00000  0.65910  0.46920  Biso   1.000  C
  H474     1.0000 0.00000  0.64270  0.48810  Biso   1.000  H
  C1051    1.0000 0.00000  0.74500  0.24210  Biso   1.000  C
  H475     1.0000 0.00000  0.76380  0.25870  Biso   1.000  H
  N45      1.0000 0.00000  0.90300  0.30010  Biso   1.000  N
  N46      1.0000 0.00000  0.68970  0.40120  Biso   1.000  N
  C1052    1.0000 0.00000  0.62890  0.12690  Biso   1.000  C
  H476     1.0000 0.00000  0.61060  0.10980  Biso   1.000  H
  Gd72     1.0000 0.50000  0.19043  0.68663  Biso   1.000  Gd
  O479     1.0000 0.50000  0.16280  0.62470  Biso   1.000  O
  O480     1.0000 0.50000  0.12910  0.65860  Biso   1.000  O
  C1053    1.0000 0.50000  0.44940  0.85670  Biso   1.000  C
  H477     1.0000 0.50000  0.46950  0.87160  Biso   1.000  H
  C1054    1.0000 0.50000  0.15910  0.96920  Biso   1.000  C
  H478     1.0000 0.50000  0.14270  0.98810  Biso   1.000  H
  C1055    1.0000 0.50000  0.24500  0.74210  Biso   1.000  C
  H479     1.0000 0.50000  0.26380  0.75870  Biso   1.000  H
  N47      1.0000 0.50000  0.40300  0.80010  Biso   1.000  N
  N48      1.0000 0.50000  0.18970  0.90120  Biso   1.000  N
  C1056    1.0000 0.50000  0.12890  0.62690  Biso   1.000  C
  H480     1.0000 0.50000  0.11060  0.60980  Biso   1.000  H
