data_image0
_cell_length_a       33.493
_cell_length_b       53.707
_cell_length_c       22.036
_cell_angle_alpha    90
_cell_angle_beta     90
_cell_angle_gamma    90

_symmetry_space_group_name_H-M    "P 1"
_symmetry_int_tables_number       1

loop_
  _symmetry_equiv_pos_as_xyz
  'x, y, z'

loop_
  _atom_site_label
  _atom_site_occupancy
  _atom_site_fract_x
  _atom_site_fract_y
  _atom_site_fract_z
  _atom_site_thermal_displace_type
  _atom_site_B_iso_or_equiv
  _atom_site_type_symbol
  In1      1.0000 0.72092  0.72132  0.56868  Biso   1.000  In
  In2      1.0000 0.70772  0.55447  0.71191  Biso   1.000  In
  In3      1.0000 0.67285  0.88054  0.29403  Biso   1.000  In
  O1       1.0000 0.90160  0.69254  0.90340  Biso   1.000  O
  O2       1.0000 0.90021  0.68096  0.99770  Biso   1.000  O
  O3       1.0000 0.73440  0.69020  0.62350  Biso   1.000  O
  O4       1.0000 0.74230  0.71450  0.70200  Biso   1.000  O
  O5       1.0000 0.71380  0.59831  0.67030  Biso   1.000  O
  O6       1.0000 0.73730  0.58495  0.75420  Biso   1.000  O
  O7       1.0000 0.76673  0.62394  0.24740  Biso   1.000  O
  O8       1.0000 0.82105  0.62317  0.19350  Biso   1.000  O
  O9       1.0000 0.63889  0.63848  0.03120  Biso   1.000  O
  O10      1.0000 0.63470  0.62758  0.12740  Biso   1.000  O
  O11      1.0000 0.48320  0.70512  0.37400  Biso   1.000  O
  O12      1.0000 0.52190  0.71333  0.45060  Biso   1.000  O
  O13      1.0000 0.70060  0.74836  0.50260  Biso   1.000  O
  O14      1.0000 0.72890  0.78506  0.50970  Biso   1.000  O
  O15      1.0000 0.69302  0.85069  0.35980  Biso   1.000  O
  O16      1.0000 0.65380  0.84038  0.28460  Biso   1.000  O
  O17      1.0000 0.55940  0.76463  0.98200  Biso   1.000  O
  O18      1.0000 0.53807  0.78800  0.05680  Biso   1.000  O
  O19      1.0000 0.56920  0.67294  0.02030  Biso   1.000  O
  O20      1.0000 0.55770  0.65830  0.11090  Biso   1.000  O
  C1       1.0000 0.84270  0.67291  0.93840  Biso   1.000  C
  C2       1.0000 0.82650  0.67054  0.88050  Biso   1.000  C
  H1       1.0000 0.84010  0.67700  0.84730  Biso   1.000  H
  C3       1.0000 0.79020  0.65860  0.87220  Biso   1.000  C
  C4       1.0000 0.76980  0.64960  0.92340  Biso   1.000  C
  H2       1.0000 0.74550  0.64160  0.91790  Biso   1.000  H
  C5       1.0000 0.78460  0.65240  0.98220  Biso   1.000  C
  C6       1.0000 0.82110  0.66414  0.98920  Biso   1.000  C
  H3       1.0000 0.83150  0.66630  0.02800  Biso   1.000  H
  C7       1.0000 0.77360  0.65445  0.81020  Biso   1.000  C
  C8       1.0000 0.76970  0.67490  0.77060  Biso   1.000  C
  H4       1.0000 0.77900  0.69050  0.78200  Biso   1.000  H
  C9       1.0000 0.75220  0.67151  0.71520  Biso   1.000  C
  C10      1.0000 0.74060  0.64829  0.69550  Biso   1.000  C
  H5       1.0000 0.73060  0.64610  0.65650  Biso   1.000  H
  C11      1.0000 0.74440  0.62790  0.73530  Biso   1.000  C
  C12      1.0000 0.76020  0.63140  0.79290  Biso   1.000  C
  H6       1.0000 0.76170  0.61810  0.81980  Biso   1.000  H
  C13      1.0000 0.76210  0.64417  0.03660  Biso   1.000  C
  C14      1.0000 0.78130  0.63806  0.08810  Biso   1.000  C
  H7       1.0000 0.80910  0.63860  0.08900  Biso   1.000  H
  C15      1.0000 0.76080  0.63107  0.13960  Biso   1.000  C
  C16      1.0000 0.71930  0.63028  0.13950  Biso   1.000  C
  H8       1.0000 0.70520  0.62610  0.17440  Biso   1.000  H
  C17      1.0000 0.69930  0.63596  0.08580  Biso   1.000  C
  C18      1.0000 0.72030  0.64287  0.03520  Biso   1.000  C
  H9       1.0000 0.70670  0.64670  0.99960  Biso   1.000  H
  C19      1.0000 0.88400  0.68276  0.94670  Biso   1.000  C
  C20      1.0000 0.74120  0.69380  0.67890  Biso   1.000  C
  C21      1.0000 0.73100  0.60237  0.71750  Biso   1.000  C
  C22      1.0000 0.78390  0.62579  0.19710  Biso   1.000  C
  C23      1.0000 0.65460  0.63346  0.08350  Biso   1.000  C
  C24      1.0000 0.54390  0.72628  0.35210  Biso   1.000  C
  C25      1.0000 0.57390  0.74115  0.37380  Biso   1.000  C
  H10      1.0000 0.57770  0.74260  0.41540  Biso   1.000  H
  C26      1.0000 0.59860  0.75399  0.33430  Biso   1.000  C
  C27      1.0000 0.59300  0.75124  0.27270  Biso   1.000  C
  H11      1.0000 0.60920  0.76000  0.24590  Biso   1.000  H
  C28      1.0000 0.56350  0.73570  0.25000  Biso   1.000  C
  C29      1.0000 0.53860  0.72288  0.28950  Biso   1.000  C
  H12      1.0000 0.51890  0.71230  0.27480  Biso   1.000  H
  C30      1.0000 0.63060  0.77078  0.36000  Biso   1.000  C
  C31      1.0000 0.65270  0.76348  0.40940  Biso   1.000  C
  H13      1.0000 0.64810  0.74790  0.42650  Biso   1.000  H
  C32      1.0000 0.68150  0.77852  0.43430  Biso   1.000  C
  C33      1.0000 0.68810  0.80203  0.40900  Biso   1.000  C
  H14      1.0000 0.70720  0.81260  0.42540  Biso   1.000  H
  C34      1.0000 0.66600  0.80932  0.35950  Biso   1.000  C
  C35      1.0000 0.63800  0.79355  0.33460  Biso   1.000  C
  H15      1.0000 0.62390  0.79850  0.30020  Biso   1.000  H
  C36      1.0000 0.56010  0.73071  0.18310  Biso   1.000  C
  C37      1.0000 0.55700  0.75074  0.14170  Biso   1.000  C
  H16      1.0000 0.55640  0.76700  0.15590  Biso   1.000  H
  C38      1.0000 0.55490  0.74615  0.08080  Biso   1.000  C
  C39      1.0000 0.55710  0.72241  0.05910  Biso   1.000  C
  H17      1.0000 0.55740  0.71960  0.01750  Biso   1.000  H
  C40      1.0000 0.55890  0.70216  0.09900  Biso   1.000  C
  C41      1.0000 0.55960  0.70677  0.16110  Biso   1.000  C
  H18      1.0000 0.55980  0.69350  0.18810  Biso   1.000  H
  C42      1.0000 0.51510  0.71422  0.39530  Biso   1.000  C
  C43      1.0000 0.70490  0.76988  0.48670  Biso   1.000  C
  C44      1.0000 0.67130  0.83481  0.33280  Biso   1.000  C
  C45      1.0000 0.55010  0.76748  0.03830  Biso   1.000  C
  C46      1.0000 0.56210  0.67670  0.07540  Biso   1.000  C
  O21      1.0000 0.77180  0.71170  0.68900  Biso   1.000  O
  C47      1.0000 0.75590  0.69200  0.67190  Biso   1.000  C
  In4      1.0000 0.72092  0.22132  0.06868  Biso   1.000  In
  In5      1.0000 0.70772  0.05447  0.21191  Biso   1.000  In
  In6      1.0000 0.67285  0.38054  0.79403  Biso   1.000  In
  O22      1.0000 0.90160  0.19254  0.40340  Biso   1.000  O
  O23      1.0000 0.90021  0.18096  0.49770  Biso   1.000  O
  O24      1.0000 0.73440  0.19020  0.12350  Biso   1.000  O
  O25      1.0000 0.74230  0.21450  0.20200  Biso   1.000  O
  O26      1.0000 0.71380  0.09831  0.17030  Biso   1.000  O
  O27      1.0000 0.73730  0.08495  0.25420  Biso   1.000  O
  O28      1.0000 0.76673  0.12394  0.74740  Biso   1.000  O
  O29      1.0000 0.82105  0.12317  0.69350  Biso   1.000  O
  O30      1.0000 0.63889  0.13848  0.53120  Biso   1.000  O
  O31      1.0000 0.63470  0.12758  0.62740  Biso   1.000  O
  O32      1.0000 0.48320  0.20512  0.87400  Biso   1.000  O
  O33      1.0000 0.52190  0.21333  0.95060  Biso   1.000  O
  O34      1.0000 0.70060  0.24836  0.00260  Biso   1.000  O
  O35      1.0000 0.72890  0.28506  0.00970  Biso   1.000  O
  O36      1.0000 0.69302  0.35069  0.85980  Biso   1.000  O
  O37      1.0000 0.65380  0.34038  0.78460  Biso   1.000  O
  O38      1.0000 0.55940  0.26463  0.48200  Biso   1.000  O
  O39      1.0000 0.53807  0.28800  0.55680  Biso   1.000  O
  O40      1.0000 0.56920  0.17294  0.52030  Biso   1.000  O
  O41      1.0000 0.55770  0.15830  0.61090  Biso   1.000  O
  C48      1.0000 0.84270  0.17291  0.43840  Biso   1.000  C
  C49      1.0000 0.82650  0.17054  0.38050  Biso   1.000  C
  H19      1.0000 0.84010  0.17700  0.34730  Biso   1.000  H
  C50      1.0000 0.79020  0.15860  0.37220  Biso   1.000  C
  C51      1.0000 0.76980  0.14960  0.42340  Biso   1.000  C
  H20      1.0000 0.74550  0.14160  0.41790  Biso   1.000  H
  C52      1.0000 0.78460  0.15240  0.48220  Biso   1.000  C
  C53      1.0000 0.82110  0.16414  0.48920  Biso   1.000  C
  H21      1.0000 0.83150  0.16630  0.52800  Biso   1.000  H
  C54      1.0000 0.77360  0.15445  0.31020  Biso   1.000  C
  C55      1.0000 0.76970  0.17490  0.27060  Biso   1.000  C
  H22      1.0000 0.77900  0.19050  0.28200  Biso   1.000  H
  C56      1.0000 0.75220  0.17151  0.21520  Biso   1.000  C
  C57      1.0000 0.74060  0.14829  0.19550  Biso   1.000  C
  H23      1.0000 0.73060  0.14610  0.15650  Biso   1.000  H
  C58      1.0000 0.74440  0.12790  0.23530  Biso   1.000  C
  C59      1.0000 0.76020  0.13140  0.29290  Biso   1.000  C
  H24      1.0000 0.76170  0.11810  0.31980  Biso   1.000  H
  C60      1.0000 0.76210  0.14417  0.53660  Biso   1.000  C
  C61      1.0000 0.78130  0.13806  0.58810  Biso   1.000  C
  H25      1.0000 0.80910  0.13860  0.58900  Biso   1.000  H
  C62      1.0000 0.76080  0.13107  0.63960  Biso   1.000  C
  C63      1.0000 0.71930  0.13028  0.63950  Biso   1.000  C
  H26      1.0000 0.70520  0.12610  0.67440  Biso   1.000  H
  C64      1.0000 0.69930  0.13596  0.58580  Biso   1.000  C
  C65      1.0000 0.72030  0.14287  0.53520  Biso   1.000  C
  H27      1.0000 0.70670  0.14670  0.49960  Biso   1.000  H
  C66      1.0000 0.88400  0.18276  0.44670  Biso   1.000  C
  C67      1.0000 0.74120  0.19380  0.17890  Biso   1.000  C
  C68      1.0000 0.73100  0.10237  0.21750  Biso   1.000  C
  C69      1.0000 0.78390  0.12579  0.69710  Biso   1.000  C
  C70      1.0000 0.65460  0.13346  0.58350  Biso   1.000  C
  C71      1.0000 0.54390  0.22628  0.85210  Biso   1.000  C
  C72      1.0000 0.57390  0.24115  0.87380  Biso   1.000  C
  H28      1.0000 0.57770  0.24260  0.91540  Biso   1.000  H
  C73      1.0000 0.59860  0.25399  0.83430  Biso   1.000  C
  C74      1.0000 0.59300  0.25124  0.77270  Biso   1.000  C
  H29      1.0000 0.60920  0.26000  0.74590  Biso   1.000  H
  C75      1.0000 0.56350  0.23570  0.75000  Biso   1.000  C
  C76      1.0000 0.53860  0.22288  0.78950  Biso   1.000  C
  H30      1.0000 0.51890  0.21230  0.77480  Biso   1.000  H
  C77      1.0000 0.63060  0.27078  0.86000  Biso   1.000  C
  C78      1.0000 0.65270  0.26348  0.90940  Biso   1.000  C
  H31      1.0000 0.64810  0.24790  0.92650  Biso   1.000  H
  C79      1.0000 0.68150  0.27852  0.93430  Biso   1.000  C
  C80      1.0000 0.68810  0.30203  0.90900  Biso   1.000  C
  H32      1.0000 0.70720  0.31260  0.92540  Biso   1.000  H
  C81      1.0000 0.66600  0.30932  0.85950  Biso   1.000  C
  C82      1.0000 0.63800  0.29355  0.83460  Biso   1.000  C
  H33      1.0000 0.62390  0.29850  0.80020  Biso   1.000  H
  C83      1.0000 0.56010  0.23071  0.68310  Biso   1.000  C
  C84      1.0000 0.55700  0.25074  0.64170  Biso   1.000  C
  H34      1.0000 0.55640  0.26700  0.65590  Biso   1.000  H
  C85      1.0000 0.55490  0.24615  0.58080  Biso   1.000  C
  C86      1.0000 0.55710  0.22241  0.55910  Biso   1.000  C
  H35      1.0000 0.55740  0.21960  0.51750  Biso   1.000  H
  C87      1.0000 0.55890  0.20216  0.59900  Biso   1.000  C
  C88      1.0000 0.55960  0.20677  0.66110  Biso   1.000  C
  H36      1.0000 0.55980  0.19350  0.68810  Biso   1.000  H
  C89      1.0000 0.51510  0.21422  0.89530  Biso   1.000  C
  C90      1.0000 0.70490  0.26988  0.98670  Biso   1.000  C
  C91      1.0000 0.67130  0.33481  0.83280  Biso   1.000  C
  C92      1.0000 0.55010  0.26748  0.53830  Biso   1.000  C
  C93      1.0000 0.56210  0.17670  0.57540  Biso   1.000  C
  O42      1.0000 0.77180  0.21170  0.18900  Biso   1.000  O
  C94      1.0000 0.75590  0.19200  0.17190  Biso   1.000  C
  In7      1.0000 0.22092  0.72132  0.06868  Biso   1.000  In
  In8      1.0000 0.20772  0.55447  0.21191  Biso   1.000  In
  In9      1.0000 0.17285  0.88054  0.79403  Biso   1.000  In
  O43      1.0000 0.40160  0.69254  0.40340  Biso   1.000  O
  O44      1.0000 0.40021  0.68096  0.49770  Biso   1.000  O
  O45      1.0000 0.23440  0.69020  0.12350  Biso   1.000  O
  O46      1.0000 0.24230  0.71450  0.20200  Biso   1.000  O
  O47      1.0000 0.21380  0.59831  0.17030  Biso   1.000  O
  O48      1.0000 0.23730  0.58495  0.25420  Biso   1.000  O
  O49      1.0000 0.26673  0.62394  0.74740  Biso   1.000  O
  O50      1.0000 0.32105  0.62317  0.69350  Biso   1.000  O
  O51      1.0000 0.13889  0.63848  0.53120  Biso   1.000  O
  O52      1.0000 0.13470  0.62758  0.62740  Biso   1.000  O
  O53      1.0000 0.98320  0.70512  0.87400  Biso   1.000  O
  O54      1.0000 0.02190  0.71333  0.95060  Biso   1.000  O
  O55      1.0000 0.20060  0.74836  0.00260  Biso   1.000  O
  O56      1.0000 0.22890  0.78506  0.00970  Biso   1.000  O
  O57      1.0000 0.19302  0.85069  0.85980  Biso   1.000  O
  O58      1.0000 0.15380  0.84038  0.78460  Biso   1.000  O
  O59      1.0000 0.05940  0.76463  0.48200  Biso   1.000  O
  O60      1.0000 0.03807  0.78800  0.55680  Biso   1.000  O
  O61      1.0000 0.06920  0.67294  0.52030  Biso   1.000  O
  O62      1.0000 0.05770  0.65830  0.61090  Biso   1.000  O
  C95      1.0000 0.34270  0.67291  0.43840  Biso   1.000  C
  C96      1.0000 0.32650  0.67054  0.38050  Biso   1.000  C
  H37      1.0000 0.34010  0.67700  0.34730  Biso   1.000  H
  C97      1.0000 0.29020  0.65860  0.37220  Biso   1.000  C
  C98      1.0000 0.26980  0.64960  0.42340  Biso   1.000  C
  H38      1.0000 0.24550  0.64160  0.41790  Biso   1.000  H
  C99      1.0000 0.28460  0.65240  0.48220  Biso   1.000  C
  C100     1.0000 0.32110  0.66414  0.48920  Biso   1.000  C
  H39      1.0000 0.33150  0.66630  0.52800  Biso   1.000  H
  C101     1.0000 0.27360  0.65445  0.31020  Biso   1.000  C
  C102     1.0000 0.26970  0.67490  0.27060  Biso   1.000  C
  H40      1.0000 0.27900  0.69050  0.28200  Biso   1.000  H
  C103     1.0000 0.25220  0.67151  0.21520  Biso   1.000  C
  C104     1.0000 0.24060  0.64829  0.19550  Biso   1.000  C
  H41      1.0000 0.23060  0.64610  0.15650  Biso   1.000  H
  C105     1.0000 0.24440  0.62790  0.23530  Biso   1.000  C
  C106     1.0000 0.26020  0.63140  0.29290  Biso   1.000  C
  H42      1.0000 0.26170  0.61810  0.31980  Biso   1.000  H
  C107     1.0000 0.26210  0.64417  0.53660  Biso   1.000  C
  C108     1.0000 0.28130  0.63806  0.58810  Biso   1.000  C
  H43      1.0000 0.30910  0.63860  0.58900  Biso   1.000  H
  C109     1.0000 0.26080  0.63107  0.63960  Biso   1.000  C
  C110     1.0000 0.21930  0.63028  0.63950  Biso   1.000  C
  H44      1.0000 0.20520  0.62610  0.67440  Biso   1.000  H
  C111     1.0000 0.19930  0.63596  0.58580  Biso   1.000  C
  C112     1.0000 0.22030  0.64287  0.53520  Biso   1.000  C
  H45      1.0000 0.20670  0.64670  0.49960  Biso   1.000  H
  C113     1.0000 0.38400  0.68276  0.44670  Biso   1.000  C
  C114     1.0000 0.24120  0.69380  0.17890  Biso   1.000  C
  C115     1.0000 0.23100  0.60237  0.21750  Biso   1.000  C
  C116     1.0000 0.28390  0.62579  0.69710  Biso   1.000  C
  C117     1.0000 0.15460  0.63346  0.58350  Biso   1.000  C
  C118     1.0000 0.04390  0.72628  0.85210  Biso   1.000  C
  C119     1.0000 0.07390  0.74115  0.87380  Biso   1.000  C
  H46      1.0000 0.07770  0.74260  0.91540  Biso   1.000  H
  C120     1.0000 0.09860  0.75399  0.83430  Biso   1.000  C
  C121     1.0000 0.09300  0.75124  0.77270  Biso   1.000  C
  H47      1.0000 0.10920  0.76000  0.74590  Biso   1.000  H
  C122     1.0000 0.06350  0.73570  0.75000  Biso   1.000  C
  C123     1.0000 0.03860  0.72288  0.78950  Biso   1.000  C
  H48      1.0000 0.01890  0.71230  0.77480  Biso   1.000  H
  C124     1.0000 0.13060  0.77078  0.86000  Biso   1.000  C
  C125     1.0000 0.15270  0.76348  0.90940  Biso   1.000  C
  H49      1.0000 0.14810  0.74790  0.92650  Biso   1.000  H
  C126     1.0000 0.18150  0.77852  0.93430  Biso   1.000  C
  C127     1.0000 0.18810  0.80203  0.90900  Biso   1.000  C
  H50      1.0000 0.20720  0.81260  0.92540  Biso   1.000  H
  C128     1.0000 0.16600  0.80932  0.85950  Biso   1.000  C
  C129     1.0000 0.13800  0.79355  0.83460  Biso   1.000  C
  H51      1.0000 0.12390  0.79850  0.80020  Biso   1.000  H
  C130     1.0000 0.06010  0.73071  0.68310  Biso   1.000  C
  C131     1.0000 0.05700  0.75074  0.64170  Biso   1.000  C
  H52      1.0000 0.05640  0.76700  0.65590  Biso   1.000  H
  C132     1.0000 0.05490  0.74615  0.58080  Biso   1.000  C
  C133     1.0000 0.05710  0.72241  0.55910  Biso   1.000  C
  H53      1.0000 0.05740  0.71960  0.51750  Biso   1.000  H
  C134     1.0000 0.05890  0.70216  0.59900  Biso   1.000  C
  C135     1.0000 0.05960  0.70677  0.66110  Biso   1.000  C
  H54      1.0000 0.05980  0.69350  0.68810  Biso   1.000  H
  C136     1.0000 0.01510  0.71422  0.89530  Biso   1.000  C
  C137     1.0000 0.20490  0.76988  0.98670  Biso   1.000  C
  C138     1.0000 0.17130  0.83481  0.83280  Biso   1.000  C
  C139     1.0000 0.05010  0.76748  0.53830  Biso   1.000  C
  C140     1.0000 0.06210  0.67670  0.57540  Biso   1.000  C
  O63      1.0000 0.27180  0.71170  0.18900  Biso   1.000  O
  C141     1.0000 0.25590  0.69200  0.17190  Biso   1.000  C
  In10     1.0000 0.22092  0.22132  0.56868  Biso   1.000  In
  In11     1.0000 0.20772  0.05447  0.71191  Biso   1.000  In
  In12     1.0000 0.17285  0.38054  0.29403  Biso   1.000  In
  O64      1.0000 0.40160  0.19254  0.90340  Biso   1.000  O
  O65      1.0000 0.40021  0.18096  0.99770  Biso   1.000  O
  O66      1.0000 0.23440  0.19020  0.62350  Biso   1.000  O
  O67      1.0000 0.24230  0.21450  0.70200  Biso   1.000  O
  O68      1.0000 0.21380  0.09831  0.67030  Biso   1.000  O
  O69      1.0000 0.23730  0.08495  0.75420  Biso   1.000  O
  O70      1.0000 0.26673  0.12394  0.24740  Biso   1.000  O
  O71      1.0000 0.32105  0.12317  0.19350  Biso   1.000  O
  O72      1.0000 0.13889  0.13848  0.03120  Biso   1.000  O
  O73      1.0000 0.13470  0.12758  0.12740  Biso   1.000  O
  O74      1.0000 0.98320  0.20512  0.37400  Biso   1.000  O
  O75      1.0000 0.02190  0.21333  0.45060  Biso   1.000  O
  O76      1.0000 0.20060  0.24836  0.50260  Biso   1.000  O
  O77      1.0000 0.22890  0.28506  0.50970  Biso   1.000  O
  O78      1.0000 0.19302  0.35069  0.35980  Biso   1.000  O
  O79      1.0000 0.15380  0.34038  0.28460  Biso   1.000  O
  O80      1.0000 0.05940  0.26463  0.98200  Biso   1.000  O
  O81      1.0000 0.03807  0.28800  0.05680  Biso   1.000  O
  O82      1.0000 0.06920  0.17294  0.02030  Biso   1.000  O
  O83      1.0000 0.05770  0.15830  0.11090  Biso   1.000  O
  C142     1.0000 0.34270  0.17291  0.93840  Biso   1.000  C
  C143     1.0000 0.32650  0.17054  0.88050  Biso   1.000  C
  H55      1.0000 0.34010  0.17700  0.84730  Biso   1.000  H
  C144     1.0000 0.29020  0.15860  0.87220  Biso   1.000  C
  C145     1.0000 0.26980  0.14960  0.92340  Biso   1.000  C
  H56      1.0000 0.24550  0.14160  0.91790  Biso   1.000  H
  C146     1.0000 0.28460  0.15240  0.98220  Biso   1.000  C
  C147     1.0000 0.32110  0.16414  0.98920  Biso   1.000  C
  H57      1.0000 0.33150  0.16630  0.02800  Biso   1.000  H
  C148     1.0000 0.27360  0.15445  0.81020  Biso   1.000  C
  C149     1.0000 0.26970  0.17490  0.77060  Biso   1.000  C
  H58      1.0000 0.27900  0.19050  0.78200  Biso   1.000  H
  C150     1.0000 0.25220  0.17151  0.71520  Biso   1.000  C
  C151     1.0000 0.24060  0.14829  0.69550  Biso   1.000  C
  H59      1.0000 0.23060  0.14610  0.65650  Biso   1.000  H
  C152     1.0000 0.24440  0.12790  0.73530  Biso   1.000  C
  C153     1.0000 0.26020  0.13140  0.79290  Biso   1.000  C
  H60      1.0000 0.26170  0.11810  0.81980  Biso   1.000  H
  C154     1.0000 0.26210  0.14417  0.03660  Biso   1.000  C
  C155     1.0000 0.28130  0.13806  0.08810  Biso   1.000  C
  H61      1.0000 0.30910  0.13860  0.08900  Biso   1.000  H
  C156     1.0000 0.26080  0.13107  0.13960  Biso   1.000  C
  C157     1.0000 0.21930  0.13028  0.13950  Biso   1.000  C
  H62      1.0000 0.20520  0.12610  0.17440  Biso   1.000  H
  C158     1.0000 0.19930  0.13596  0.08580  Biso   1.000  C
  C159     1.0000 0.22030  0.14287  0.03520  Biso   1.000  C
  H63      1.0000 0.20670  0.14670  0.99960  Biso   1.000  H
  C160     1.0000 0.38400  0.18276  0.94670  Biso   1.000  C
  C161     1.0000 0.24120  0.19380  0.67890  Biso   1.000  C
  C162     1.0000 0.23100  0.10237  0.71750  Biso   1.000  C
  C163     1.0000 0.28390  0.12579  0.19710  Biso   1.000  C
  C164     1.0000 0.15460  0.13346  0.08350  Biso   1.000  C
  C165     1.0000 0.04390  0.22628  0.35210  Biso   1.000  C
  C166     1.0000 0.07390  0.24115  0.37380  Biso   1.000  C
  H64      1.0000 0.07770  0.24260  0.41540  Biso   1.000  H
  C167     1.0000 0.09860  0.25399  0.33430  Biso   1.000  C
  C168     1.0000 0.09300  0.25124  0.27270  Biso   1.000  C
  H65      1.0000 0.10920  0.26000  0.24590  Biso   1.000  H
  C169     1.0000 0.06350  0.23570  0.25000  Biso   1.000  C
  C170     1.0000 0.03860  0.22288  0.28950  Biso   1.000  C
  H66      1.0000 0.01890  0.21230  0.27480  Biso   1.000  H
  C171     1.0000 0.13060  0.27078  0.36000  Biso   1.000  C
  C172     1.0000 0.15270  0.26348  0.40940  Biso   1.000  C
  H67      1.0000 0.14810  0.24790  0.42650  Biso   1.000  H
  C173     1.0000 0.18150  0.27852  0.43430  Biso   1.000  C
  C174     1.0000 0.18810  0.30203  0.40900  Biso   1.000  C
  H68      1.0000 0.20720  0.31260  0.42540  Biso   1.000  H
  C175     1.0000 0.16600  0.30932  0.35950  Biso   1.000  C
  C176     1.0000 0.13800  0.29355  0.33460  Biso   1.000  C
  H69      1.0000 0.12390  0.29850  0.30020  Biso   1.000  H
  C177     1.0000 0.06010  0.23071  0.18310  Biso   1.000  C
  C178     1.0000 0.05700  0.25074  0.14170  Biso   1.000  C
  H70      1.0000 0.05640  0.26700  0.15590  Biso   1.000  H
  C179     1.0000 0.05490  0.24615  0.08080  Biso   1.000  C
  C180     1.0000 0.05710  0.22241  0.05910  Biso   1.000  C
  H71      1.0000 0.05740  0.21960  0.01750  Biso   1.000  H
  C181     1.0000 0.05890  0.20216  0.09900  Biso   1.000  C
  C182     1.0000 0.05960  0.20677  0.16110  Biso   1.000  C
  H72      1.0000 0.05980  0.19350  0.18810  Biso   1.000  H
  C183     1.0000 0.01510  0.21422  0.39530  Biso   1.000  C
  C184     1.0000 0.20490  0.26988  0.48670  Biso   1.000  C
  C185     1.0000 0.17130  0.33481  0.33280  Biso   1.000  C
  C186     1.0000 0.05010  0.26748  0.03830  Biso   1.000  C
  C187     1.0000 0.06210  0.17670  0.07540  Biso   1.000  C
  O84      1.0000 0.27180  0.21170  0.68900  Biso   1.000  O
  C188     1.0000 0.25590  0.19200  0.67190  Biso   1.000  C
  In13     1.0000 0.27908  0.27868  0.56868  Biso   1.000  In
  In14     1.0000 0.29228  0.44553  0.71191  Biso   1.000  In
  In15     1.0000 0.32715  0.11946  0.29403  Biso   1.000  In
  O85      1.0000 0.09840  0.30746  0.90340  Biso   1.000  O
  O86      1.0000 0.09979  0.31904  0.99770  Biso   1.000  O
  O87      1.0000 0.26560  0.30980  0.62350  Biso   1.000  O
  O88      1.0000 0.25770  0.28550  0.70200  Biso   1.000  O
  O89      1.0000 0.28620  0.40169  0.67030  Biso   1.000  O
  O90      1.0000 0.26270  0.41505  0.75420  Biso   1.000  O
  O91      1.0000 0.23327  0.37606  0.24740  Biso   1.000  O
  O92      1.0000 0.17895  0.37683  0.19350  Biso   1.000  O
  O93      1.0000 0.36111  0.36152  0.03120  Biso   1.000  O
  O94      1.0000 0.36530  0.37242  0.12740  Biso   1.000  O
  O95      1.0000 0.51680  0.29488  0.37400  Biso   1.000  O
  O96      1.0000 0.47810  0.28667  0.45060  Biso   1.000  O
  O97      1.0000 0.29940  0.25164  0.50260  Biso   1.000  O
  O98      1.0000 0.27110  0.21494  0.50970  Biso   1.000  O
  O99      1.0000 0.30698  0.14931  0.35980  Biso   1.000  O
  O100     1.0000 0.34620  0.15962  0.28460  Biso   1.000  O
  O101     1.0000 0.44060  0.23537  0.98200  Biso   1.000  O
  O102     1.0000 0.46193  0.21200  0.05680  Biso   1.000  O
  O103     1.0000 0.43080  0.32706  0.02030  Biso   1.000  O
  O104     1.0000 0.44230  0.34170  0.11090  Biso   1.000  O
  C189     1.0000 0.15730  0.32709  0.93840  Biso   1.000  C
  C190     1.0000 0.17350  0.32946  0.88050  Biso   1.000  C
  H73      1.0000 0.15990  0.32300  0.84730  Biso   1.000  H
  C191     1.0000 0.20980  0.34140  0.87220  Biso   1.000  C
  C192     1.0000 0.23020  0.35040  0.92340  Biso   1.000  C
  H74      1.0000 0.25450  0.35840  0.91790  Biso   1.000  H
  C193     1.0000 0.21540  0.34760  0.98220  Biso   1.000  C
  C194     1.0000 0.17890  0.33586  0.98920  Biso   1.000  C
  H75      1.0000 0.16850  0.33370  0.02800  Biso   1.000  H
  C195     1.0000 0.22640  0.34555  0.81020  Biso   1.000  C
  C196     1.0000 0.23030  0.32510  0.77060  Biso   1.000  C
  H76      1.0000 0.22100  0.30950  0.78200  Biso   1.000  H
  C197     1.0000 0.24780  0.32849  0.71520  Biso   1.000  C
  C198     1.0000 0.25940  0.35171  0.69550  Biso   1.000  C
  H77      1.0000 0.26940  0.35390  0.65650  Biso   1.000  H
  C199     1.0000 0.25560  0.37210  0.73530  Biso   1.000  C
  C200     1.0000 0.23980  0.36860  0.79290  Biso   1.000  C
  H78      1.0000 0.23830  0.38190  0.81980  Biso   1.000  H
  C201     1.0000 0.23790  0.35583  0.03660  Biso   1.000  C
  C202     1.0000 0.21870  0.36194  0.08810  Biso   1.000  C
  H79      1.0000 0.19090  0.36140  0.08900  Biso   1.000  H
  C203     1.0000 0.23920  0.36893  0.13960  Biso   1.000  C
  C204     1.0000 0.28070  0.36972  0.13950  Biso   1.000  C
  H80      1.0000 0.29480  0.37390  0.17440  Biso   1.000  H
  C205     1.0000 0.30070  0.36404  0.08580  Biso   1.000  C
  C206     1.0000 0.27970  0.35713  0.03520  Biso   1.000  C
  H81      1.0000 0.29330  0.35330  0.99960  Biso   1.000  H
  C207     1.0000 0.11600  0.31724  0.94670  Biso   1.000  C
  C208     1.0000 0.25880  0.30620  0.67890  Biso   1.000  C
  C209     1.0000 0.26900  0.39763  0.71750  Biso   1.000  C
  C210     1.0000 0.21610  0.37421  0.19710  Biso   1.000  C
  C211     1.0000 0.34540  0.36654  0.08350  Biso   1.000  C
  C212     1.0000 0.45610  0.27372  0.35210  Biso   1.000  C
  C213     1.0000 0.42610  0.25885  0.37380  Biso   1.000  C
  H82      1.0000 0.42230  0.25740  0.41540  Biso   1.000  H
  C214     1.0000 0.40140  0.24601  0.33430  Biso   1.000  C
  C215     1.0000 0.40700  0.24876  0.27270  Biso   1.000  C
  H83      1.0000 0.39080  0.24000  0.24590  Biso   1.000  H
  C216     1.0000 0.43650  0.26430  0.25000  Biso   1.000  C
  C217     1.0000 0.46140  0.27712  0.28950  Biso   1.000  C
  H84      1.0000 0.48110  0.28770  0.27480  Biso   1.000  H
  C218     1.0000 0.36940  0.22922  0.36000  Biso   1.000  C
  C219     1.0000 0.34730  0.23652  0.40940  Biso   1.000  C
  H85      1.0000 0.35190  0.25210  0.42650  Biso   1.000  H
  C220     1.0000 0.31850  0.22148  0.43430  Biso   1.000  C
  C221     1.0000 0.31190  0.19797  0.40900  Biso   1.000  C
  H86      1.0000 0.29280  0.18740  0.42540  Biso   1.000  H
  C222     1.0000 0.33400  0.19068  0.35950  Biso   1.000  C
  C223     1.0000 0.36200  0.20645  0.33460  Biso   1.000  C
  H87      1.0000 0.37610  0.20150  0.30020  Biso   1.000  H
  C224     1.0000 0.43990  0.26929  0.18310  Biso   1.000  C
  C225     1.0000 0.44300  0.24926  0.14170  Biso   1.000  C
  H88      1.0000 0.44360  0.23300  0.15590  Biso   1.000  H
  C226     1.0000 0.44510  0.25385  0.08080  Biso   1.000  C
  C227     1.0000 0.44290  0.27759  0.05910  Biso   1.000  C
  H89      1.0000 0.44260  0.28040  0.01750  Biso   1.000  H
  C228     1.0000 0.44110  0.29784  0.09900  Biso   1.000  C
  C229     1.0000 0.44040  0.29323  0.16110  Biso   1.000  C
  H90      1.0000 0.44020  0.30650  0.18810  Biso   1.000  H
  C230     1.0000 0.48490  0.28578  0.39530  Biso   1.000  C
  C231     1.0000 0.29510  0.23012  0.48670  Biso   1.000  C
  C232     1.0000 0.32870  0.16519  0.33280  Biso   1.000  C
  C233     1.0000 0.44990  0.23252  0.03830  Biso   1.000  C
  C234     1.0000 0.43790  0.32330  0.07540  Biso   1.000  C
  O105     1.0000 0.22820  0.28830  0.68900  Biso   1.000  O
  C235     1.0000 0.24410  0.30800  0.67190  Biso   1.000  C
  In16     1.0000 0.27908  0.77868  0.06868  Biso   1.000  In
  In17     1.0000 0.29228  0.94553  0.21191  Biso   1.000  In
  In18     1.0000 0.32715  0.61946  0.79403  Biso   1.000  In
  O106     1.0000 0.09840  0.80746  0.40340  Biso   1.000  O
  O107     1.0000 0.09979  0.81904  0.49770  Biso   1.000  O
  O108     1.0000 0.26560  0.80980  0.12350  Biso   1.000  O
  O109     1.0000 0.25770  0.78550  0.20200  Biso   1.000  O
  O110     1.0000 0.28620  0.90169  0.17030  Biso   1.000  O
  O111     1.0000 0.26270  0.91505  0.25420  Biso   1.000  O
  O112     1.0000 0.23327  0.87606  0.74740  Biso   1.000  O
  O113     1.0000 0.17895  0.87683  0.69350  Biso   1.000  O
  O114     1.0000 0.36111  0.86152  0.53120  Biso   1.000  O
  O115     1.0000 0.36530  0.87242  0.62740  Biso   1.000  O
  O116     1.0000 0.51680  0.79488  0.87400  Biso   1.000  O
  O117     1.0000 0.47810  0.78667  0.95060  Biso   1.000  O
  O118     1.0000 0.29940  0.75164  0.00260  Biso   1.000  O
  O119     1.0000 0.27110  0.71494  0.00970  Biso   1.000  O
  O120     1.0000 0.30698  0.64931  0.85980  Biso   1.000  O
  O121     1.0000 0.34620  0.65962  0.78460  Biso   1.000  O
  O122     1.0000 0.44060  0.73537  0.48200  Biso   1.000  O
  O123     1.0000 0.46193  0.71200  0.55680  Biso   1.000  O
  O124     1.0000 0.43080  0.82706  0.52030  Biso   1.000  O
  O125     1.0000 0.44230  0.84170  0.61090  Biso   1.000  O
  C236     1.0000 0.15730  0.82709  0.43840  Biso   1.000  C
  C237     1.0000 0.17350  0.82946  0.38050  Biso   1.000  C
  H91      1.0000 0.15990  0.82300  0.34730  Biso   1.000  H
  C238     1.0000 0.20980  0.84140  0.37220  Biso   1.000  C
  C239     1.0000 0.23020  0.85040  0.42340  Biso   1.000  C
  H92      1.0000 0.25450  0.85840  0.41790  Biso   1.000  H
  C240     1.0000 0.21540  0.84760  0.48220  Biso   1.000  C
  C241     1.0000 0.17890  0.83586  0.48920  Biso   1.000  C
  H93      1.0000 0.16850  0.83370  0.52800  Biso   1.000  H
  C242     1.0000 0.22640  0.84555  0.31020  Biso   1.000  C
  C243     1.0000 0.23030  0.82510  0.27060  Biso   1.000  C
  H94      1.0000 0.22100  0.80950  0.28200  Biso   1.000  H
  C244     1.0000 0.24780  0.82849  0.21520  Biso   1.000  C
  C245     1.0000 0.25940  0.85171  0.19550  Biso   1.000  C
  H95      1.0000 0.26940  0.85390  0.15650  Biso   1.000  H
  C246     1.0000 0.25560  0.87210  0.23530  Biso   1.000  C
  C247     1.0000 0.23980  0.86860  0.29290  Biso   1.000  C
  H96      1.0000 0.23830  0.88190  0.31980  Biso   1.000  H
  C248     1.0000 0.23790  0.85583  0.53660  Biso   1.000  C
  C249     1.0000 0.21870  0.86194  0.58810  Biso   1.000  C
  H97      1.0000 0.19090  0.86140  0.58900  Biso   1.000  H
  C250     1.0000 0.23920  0.86893  0.63960  Biso   1.000  C
  C251     1.0000 0.28070  0.86972  0.63950  Biso   1.000  C
  H98      1.0000 0.29480  0.87390  0.67440  Biso   1.000  H
  C252     1.0000 0.30070  0.86404  0.58580  Biso   1.000  C
  C253     1.0000 0.27970  0.85713  0.53520  Biso   1.000  C
  H99      1.0000 0.29330  0.85330  0.49960  Biso   1.000  H
  C254     1.0000 0.11600  0.81724  0.44670  Biso   1.000  C
  C255     1.0000 0.25880  0.80620  0.17890  Biso   1.000  C
  C256     1.0000 0.26900  0.89763  0.21750  Biso   1.000  C
  C257     1.0000 0.21610  0.87421  0.69710  Biso   1.000  C
  C258     1.0000 0.34540  0.86654  0.58350  Biso   1.000  C
  C259     1.0000 0.45610  0.77372  0.85210  Biso   1.000  C
  C260     1.0000 0.42610  0.75885  0.87380  Biso   1.000  C
  H100     1.0000 0.42230  0.75740  0.91540  Biso   1.000  H
  C261     1.0000 0.40140  0.74601  0.83430  Biso   1.000  C
  C262     1.0000 0.40700  0.74876  0.77270  Biso   1.000  C
  H101     1.0000 0.39080  0.74000  0.74590  Biso   1.000  H
  C263     1.0000 0.43650  0.76430  0.75000  Biso   1.000  C
  C264     1.0000 0.46140  0.77712  0.78950  Biso   1.000  C
  H102     1.0000 0.48110  0.78770  0.77480  Biso   1.000  H
  C265     1.0000 0.36940  0.72922  0.86000  Biso   1.000  C
  C266     1.0000 0.34730  0.73652  0.90940  Biso   1.000  C
  H103     1.0000 0.35190  0.75210  0.92650  Biso   1.000  H
  C267     1.0000 0.31850  0.72148  0.93430  Biso   1.000  C
  C268     1.0000 0.31190  0.69797  0.90900  Biso   1.000  C
  H104     1.0000 0.29280  0.68740  0.92540  Biso   1.000  H
  C269     1.0000 0.33400  0.69068  0.85950  Biso   1.000  C
  C270     1.0000 0.36200  0.70645  0.83460  Biso   1.000  C
  H105     1.0000 0.37610  0.70150  0.80020  Biso   1.000  H
  C271     1.0000 0.43990  0.76929  0.68310  Biso   1.000  C
  C272     1.0000 0.44300  0.74926  0.64170  Biso   1.000  C
  H106     1.0000 0.44360  0.73300  0.65590  Biso   1.000  H
  C273     1.0000 0.44510  0.75385  0.58080  Biso   1.000  C
  C274     1.0000 0.44290  0.77759  0.55910  Biso   1.000  C
  H107     1.0000 0.44260  0.78040  0.51750  Biso   1.000  H
  C275     1.0000 0.44110  0.79784  0.59900  Biso   1.000  C
  C276     1.0000 0.44040  0.79323  0.66110  Biso   1.000  C
  H108     1.0000 0.44020  0.80650  0.68810  Biso   1.000  H
  C277     1.0000 0.48490  0.78578  0.89530  Biso   1.000  C
  C278     1.0000 0.29510  0.73012  0.98670  Biso   1.000  C
  C279     1.0000 0.32870  0.66519  0.83280  Biso   1.000  C
  C280     1.0000 0.44990  0.73252  0.53830  Biso   1.000  C
  C281     1.0000 0.43790  0.82330  0.57540  Biso   1.000  C
  O126     1.0000 0.22820  0.78830  0.18900  Biso   1.000  O
  C282     1.0000 0.24410  0.80800  0.17190  Biso   1.000  C
  In19     1.0000 0.77908  0.27868  0.06868  Biso   1.000  In
  In20     1.0000 0.79228  0.44553  0.21191  Biso   1.000  In
  In21     1.0000 0.82715  0.11946  0.79403  Biso   1.000  In
  O127     1.0000 0.59840  0.30746  0.40340  Biso   1.000  O
  O128     1.0000 0.59979  0.31904  0.49770  Biso   1.000  O
  O129     1.0000 0.76560  0.30980  0.12350  Biso   1.000  O
  O130     1.0000 0.75770  0.28550  0.20200  Biso   1.000  O
  O131     1.0000 0.78620  0.40169  0.17030  Biso   1.000  O
  O132     1.0000 0.76270  0.41505  0.25420  Biso   1.000  O
  O133     1.0000 0.73327  0.37606  0.74740  Biso   1.000  O
  O134     1.0000 0.67895  0.37683  0.69350  Biso   1.000  O
  O135     1.0000 0.86111  0.36152  0.53120  Biso   1.000  O
  O136     1.0000 0.86530  0.37242  0.62740  Biso   1.000  O
  O137     1.0000 0.01680  0.29488  0.87400  Biso   1.000  O
  O138     1.0000 0.97810  0.28667  0.95060  Biso   1.000  O
  O139     1.0000 0.79940  0.25164  0.00260  Biso   1.000  O
  O140     1.0000 0.77110  0.21494  0.00970  Biso   1.000  O
  O141     1.0000 0.80698  0.14931  0.85980  Biso   1.000  O
  O142     1.0000 0.84620  0.15962  0.78460  Biso   1.000  O
  O143     1.0000 0.94060  0.23537  0.48200  Biso   1.000  O
  O144     1.0000 0.96193  0.21200  0.55680  Biso   1.000  O
  O145     1.0000 0.93080  0.32706  0.52030  Biso   1.000  O
  O146     1.0000 0.94230  0.34170  0.61090  Biso   1.000  O
  C283     1.0000 0.65730  0.32709  0.43840  Biso   1.000  C
  C284     1.0000 0.67350  0.32946  0.38050  Biso   1.000  C
  H109     1.0000 0.65990  0.32300  0.34730  Biso   1.000  H
  C285     1.0000 0.70980  0.34140  0.37220  Biso   1.000  C
  C286     1.0000 0.73020  0.35040  0.42340  Biso   1.000  C
  H110     1.0000 0.75450  0.35840  0.41790  Biso   1.000  H
  C287     1.0000 0.71540  0.34760  0.48220  Biso   1.000  C
  C288     1.0000 0.67890  0.33586  0.48920  Biso   1.000  C
  H111     1.0000 0.66850  0.33370  0.52800  Biso   1.000  H
  C289     1.0000 0.72640  0.34555  0.31020  Biso   1.000  C
  C290     1.0000 0.73030  0.32510  0.27060  Biso   1.000  C
  H112     1.0000 0.72100  0.30950  0.28200  Biso   1.000  H
  C291     1.0000 0.74780  0.32849  0.21520  Biso   1.000  C
  C292     1.0000 0.75940  0.35171  0.19550  Biso   1.000  C
  H113     1.0000 0.76940  0.35390  0.15650  Biso   1.000  H
  C293     1.0000 0.75560  0.37210  0.23530  Biso   1.000  C
  C294     1.0000 0.73980  0.36860  0.29290  Biso   1.000  C
  H114     1.0000 0.73830  0.38190  0.31980  Biso   1.000  H
  C295     1.0000 0.73790  0.35583  0.53660  Biso   1.000  C
  C296     1.0000 0.71870  0.36194  0.58810  Biso   1.000  C
  H115     1.0000 0.69090  0.36140  0.58900  Biso   1.000  H
  C297     1.0000 0.73920  0.36893  0.63960  Biso   1.000  C
  C298     1.0000 0.78070  0.36972  0.63950  Biso   1.000  C
  H116     1.0000 0.79480  0.37390  0.67440  Biso   1.000  H
  C299     1.0000 0.80070  0.36404  0.58580  Biso   1.000  C
  C300     1.0000 0.77970  0.35713  0.53520  Biso   1.000  C
  H117     1.0000 0.79330  0.35330  0.49960  Biso   1.000  H
  C301     1.0000 0.61600  0.31724  0.44670  Biso   1.000  C
  C302     1.0000 0.75880  0.30620  0.17890  Biso   1.000  C
  C303     1.0000 0.76900  0.39763  0.21750  Biso   1.000  C
  C304     1.0000 0.71610  0.37421  0.69710  Biso   1.000  C
  C305     1.0000 0.84540  0.36654  0.58350  Biso   1.000  C
  C306     1.0000 0.95610  0.27372  0.85210  Biso   1.000  C
  C307     1.0000 0.92610  0.25885  0.87380  Biso   1.000  C
  H118     1.0000 0.92230  0.25740  0.91540  Biso   1.000  H
  C308     1.0000 0.90140  0.24601  0.83430  Biso   1.000  C
  C309     1.0000 0.90700  0.24876  0.77270  Biso   1.000  C
  H119     1.0000 0.89080  0.24000  0.74590  Biso   1.000  H
  C310     1.0000 0.93650  0.26430  0.75000  Biso   1.000  C
  C311     1.0000 0.96140  0.27712  0.78950  Biso   1.000  C
  H120     1.0000 0.98110  0.28770  0.77480  Biso   1.000  H
  C312     1.0000 0.86940  0.22922  0.86000  Biso   1.000  C
  C313     1.0000 0.84730  0.23652  0.90940  Biso   1.000  C
  H121     1.0000 0.85190  0.25210  0.92650  Biso   1.000  H
  C314     1.0000 0.81850  0.22148  0.93430  Biso   1.000  C
  C315     1.0000 0.81190  0.19797  0.90900  Biso   1.000  C
  H122     1.0000 0.79280  0.18740  0.92540  Biso   1.000  H
  C316     1.0000 0.83400  0.19068  0.85950  Biso   1.000  C
  C317     1.0000 0.86200  0.20645  0.83460  Biso   1.000  C
  H123     1.0000 0.87610  0.20150  0.80020  Biso   1.000  H
  C318     1.0000 0.93990  0.26929  0.68310  Biso   1.000  C
  C319     1.0000 0.94300  0.24926  0.64170  Biso   1.000  C
  H124     1.0000 0.94360  0.23300  0.65590  Biso   1.000  H
  C320     1.0000 0.94510  0.25385  0.58080  Biso   1.000  C
  C321     1.0000 0.94290  0.27759  0.55910  Biso   1.000  C
  H125     1.0000 0.94260  0.28040  0.51750  Biso   1.000  H
  C322     1.0000 0.94110  0.29784  0.59900  Biso   1.000  C
  C323     1.0000 0.94040  0.29323  0.66110  Biso   1.000  C
  H126     1.0000 0.94020  0.30650  0.68810  Biso   1.000  H
  C324     1.0000 0.98490  0.28578  0.89530  Biso   1.000  C
  C325     1.0000 0.79510  0.23012  0.98670  Biso   1.000  C
  C326     1.0000 0.82870  0.16519  0.83280  Biso   1.000  C
  C327     1.0000 0.94990  0.23252  0.53830  Biso   1.000  C
  C328     1.0000 0.93790  0.32330  0.57540  Biso   1.000  C
  O147     1.0000 0.72820  0.28830  0.18900  Biso   1.000  O
  C329     1.0000 0.74410  0.30800  0.17190  Biso   1.000  C
  In22     1.0000 0.77908  0.77868  0.56868  Biso   1.000  In
  In23     1.0000 0.79228  0.94553  0.71191  Biso   1.000  In
  In24     1.0000 0.82715  0.61946  0.29403  Biso   1.000  In
  O148     1.0000 0.59840  0.80746  0.90340  Biso   1.000  O
  O149     1.0000 0.59979  0.81904  0.99770  Biso   1.000  O
  O150     1.0000 0.76560  0.80980  0.62350  Biso   1.000  O
  O151     1.0000 0.75770  0.78550  0.70200  Biso   1.000  O
  O152     1.0000 0.78620  0.90169  0.67030  Biso   1.000  O
  O153     1.0000 0.76270  0.91505  0.75420  Biso   1.000  O
  O154     1.0000 0.73327  0.87606  0.24740  Biso   1.000  O
  O155     1.0000 0.67895  0.87683  0.19350  Biso   1.000  O
  O156     1.0000 0.86111  0.86152  0.03120  Biso   1.000  O
  O157     1.0000 0.86530  0.87242  0.12740  Biso   1.000  O
  O158     1.0000 0.01680  0.79488  0.37400  Biso   1.000  O
  O159     1.0000 0.97810  0.78667  0.45060  Biso   1.000  O
  O160     1.0000 0.79940  0.75164  0.50260  Biso   1.000  O
  O161     1.0000 0.77110  0.71494  0.50970  Biso   1.000  O
  O162     1.0000 0.80698  0.64931  0.35980  Biso   1.000  O
  O163     1.0000 0.84620  0.65962  0.28460  Biso   1.000  O
  O164     1.0000 0.94060  0.73537  0.98200  Biso   1.000  O
  O165     1.0000 0.96193  0.71200  0.05680  Biso   1.000  O
  O166     1.0000 0.93080  0.82706  0.02030  Biso   1.000  O
  O167     1.0000 0.94230  0.84170  0.11090  Biso   1.000  O
  C330     1.0000 0.65730  0.82709  0.93840  Biso   1.000  C
  C331     1.0000 0.67350  0.82946  0.88050  Biso   1.000  C
  H127     1.0000 0.65990  0.82300  0.84730  Biso   1.000  H
  C332     1.0000 0.70980  0.84140  0.87220  Biso   1.000  C
  C333     1.0000 0.73020  0.85040  0.92340  Biso   1.000  C
  H128     1.0000 0.75450  0.85840  0.91790  Biso   1.000  H
  C334     1.0000 0.71540  0.84760  0.98220  Biso   1.000  C
  C335     1.0000 0.67890  0.83586  0.98920  Biso   1.000  C
  H129     1.0000 0.66850  0.83370  0.02800  Biso   1.000  H
  C336     1.0000 0.72640  0.84555  0.81020  Biso   1.000  C
  C337     1.0000 0.73030  0.82510  0.77060  Biso   1.000  C
  H130     1.0000 0.72100  0.80950  0.78200  Biso   1.000  H
  C338     1.0000 0.74780  0.82849  0.71520  Biso   1.000  C
  C339     1.0000 0.75940  0.85171  0.69550  Biso   1.000  C
  H131     1.0000 0.76940  0.85390  0.65650  Biso   1.000  H
  C340     1.0000 0.75560  0.87210  0.73530  Biso   1.000  C
  C341     1.0000 0.73980  0.86860  0.79290  Biso   1.000  C
  H132     1.0000 0.73830  0.88190  0.81980  Biso   1.000  H
  C342     1.0000 0.73790  0.85583  0.03660  Biso   1.000  C
  C343     1.0000 0.71870  0.86194  0.08810  Biso   1.000  C
  H133     1.0000 0.69090  0.86140  0.08900  Biso   1.000  H
  C344     1.0000 0.73920  0.86893  0.13960  Biso   1.000  C
  C345     1.0000 0.78070  0.86972  0.13950  Biso   1.000  C
  H134     1.0000 0.79480  0.87390  0.17440  Biso   1.000  H
  C346     1.0000 0.80070  0.86404  0.08580  Biso   1.000  C
  C347     1.0000 0.77970  0.85713  0.03520  Biso   1.000  C
  H135     1.0000 0.79330  0.85330  0.99960  Biso   1.000  H
  C348     1.0000 0.61600  0.81724  0.94670  Biso   1.000  C
  C349     1.0000 0.75880  0.80620  0.67890  Biso   1.000  C
  C350     1.0000 0.76900  0.89763  0.71750  Biso   1.000  C
  C351     1.0000 0.71610  0.87421  0.19710  Biso   1.000  C
  C352     1.0000 0.84540  0.86654  0.08350  Biso   1.000  C
  C353     1.0000 0.95610  0.77372  0.35210  Biso   1.000  C
  C354     1.0000 0.92610  0.75885  0.37380  Biso   1.000  C
  H136     1.0000 0.92230  0.75740  0.41540  Biso   1.000  H
  C355     1.0000 0.90140  0.74601  0.33430  Biso   1.000  C
  C356     1.0000 0.90700  0.74876  0.27270  Biso   1.000  C
  H137     1.0000 0.89080  0.74000  0.24590  Biso   1.000  H
  C357     1.0000 0.93650  0.76430  0.25000  Biso   1.000  C
  C358     1.0000 0.96140  0.77712  0.28950  Biso   1.000  C
  H138     1.0000 0.98110  0.78770  0.27480  Biso   1.000  H
  C359     1.0000 0.86940  0.72922  0.36000  Biso   1.000  C
  C360     1.0000 0.84730  0.73652  0.40940  Biso   1.000  C
  H139     1.0000 0.85190  0.75210  0.42650  Biso   1.000  H
  C361     1.0000 0.81850  0.72148  0.43430  Biso   1.000  C
  C362     1.0000 0.81190  0.69797  0.40900  Biso   1.000  C
  H140     1.0000 0.79280  0.68740  0.42540  Biso   1.000  H
  C363     1.0000 0.83400  0.69068  0.35950  Biso   1.000  C
  C364     1.0000 0.86200  0.70645  0.33460  Biso   1.000  C
  H141     1.0000 0.87610  0.70150  0.30020  Biso   1.000  H
  C365     1.0000 0.93990  0.76929  0.18310  Biso   1.000  C
  C366     1.0000 0.94300  0.74926  0.14170  Biso   1.000  C
  H142     1.0000 0.94360  0.73300  0.15590  Biso   1.000  H
  C367     1.0000 0.94510  0.75385  0.08080  Biso   1.000  C
  C368     1.0000 0.94290  0.77759  0.05910  Biso   1.000  C
  H143     1.0000 0.94260  0.78040  0.01750  Biso   1.000  H
  C369     1.0000 0.94110  0.79784  0.09900  Biso   1.000  C
  C370     1.0000 0.94040  0.79323  0.16110  Biso   1.000  C
  H144     1.0000 0.94020  0.80650  0.18810  Biso   1.000  H
  C371     1.0000 0.98490  0.78578  0.39530  Biso   1.000  C
  C372     1.0000 0.79510  0.73012  0.48670  Biso   1.000  C
  C373     1.0000 0.82870  0.66519  0.33280  Biso   1.000  C
  C374     1.0000 0.94990  0.73252  0.03830  Biso   1.000  C
  C375     1.0000 0.93790  0.82330  0.07540  Biso   1.000  C
  O168     1.0000 0.72820  0.78830  0.68900  Biso   1.000  O
  C376     1.0000 0.74410  0.80800  0.67190  Biso   1.000  C
  In25     1.0000 0.97092  0.52868  0.81868  Biso   1.000  In
  In26     1.0000 0.95772  0.69553  0.96191  Biso   1.000  In
  In27     1.0000 0.92285  0.36946  0.54403  Biso   1.000  In
  O169     1.0000 0.15160  0.55746  0.15340  Biso   1.000  O
  O170     1.0000 0.15021  0.56904  0.24770  Biso   1.000  O
  O171     1.0000 0.98440  0.55980  0.87350  Biso   1.000  O
  O172     1.0000 0.99230  0.53550  0.95200  Biso   1.000  O
  O173     1.0000 0.96380  0.65169  0.92030  Biso   1.000  O
  O174     1.0000 0.98730  0.66505  0.00420  Biso   1.000  O
  O175     1.0000 0.01673  0.62606  0.49740  Biso   1.000  O
  O176     1.0000 0.07105  0.62683  0.44350  Biso   1.000  O
  O177     1.0000 0.88889  0.61152  0.28120  Biso   1.000  O
  O178     1.0000 0.88470  0.62242  0.37740  Biso   1.000  O
  O179     1.0000 0.73320  0.54488  0.62400  Biso   1.000  O
  O180     1.0000 0.77190  0.53667  0.70060  Biso   1.000  O
  O181     1.0000 0.95060  0.50164  0.75260  Biso   1.000  O
  O182     1.0000 0.97890  0.46494  0.75970  Biso   1.000  O
  O183     1.0000 0.94302  0.39931  0.60980  Biso   1.000  O
  O184     1.0000 0.90380  0.40962  0.53460  Biso   1.000  O
  O185     1.0000 0.80940  0.48537  0.23200  Biso   1.000  O
  O186     1.0000 0.78807  0.46200  0.30680  Biso   1.000  O
  O187     1.0000 0.81920  0.57706  0.27030  Biso   1.000  O
  O188     1.0000 0.80770  0.59170  0.36090  Biso   1.000  O
  C377     1.0000 0.09270  0.57709  0.18840  Biso   1.000  C
  C378     1.0000 0.07650  0.57946  0.13050  Biso   1.000  C
  H145     1.0000 0.09010  0.57300  0.09730  Biso   1.000  H
  C379     1.0000 0.04020  0.59140  0.12220  Biso   1.000  C
  C380     1.0000 0.01980  0.60040  0.17340  Biso   1.000  C
  H146     1.0000 0.99550  0.60840  0.16790  Biso   1.000  H
  C381     1.0000 0.03460  0.59760  0.23220  Biso   1.000  C
  C382     1.0000 0.07110  0.58586  0.23920  Biso   1.000  C
  H147     1.0000 0.08150  0.58370  0.27800  Biso   1.000  H
  C383     1.0000 0.02360  0.59555  0.06020  Biso   1.000  C
  C384     1.0000 0.01970  0.57510  0.02060  Biso   1.000  C
  H148     1.0000 0.02900  0.55950  0.03200  Biso   1.000  H
  C385     1.0000 0.00220  0.57849  0.96520  Biso   1.000  C
  C386     1.0000 0.99060  0.60171  0.94550  Biso   1.000  C
  H149     1.0000 0.98060  0.60390  0.90650  Biso   1.000  H
  C387     1.0000 0.99440  0.62210  0.98530  Biso   1.000  C
  C388     1.0000 0.01020  0.61860  0.04290  Biso   1.000  C
  H150     1.0000 0.01170  0.63190  0.06980  Biso   1.000  H
  C389     1.0000 0.01210  0.60583  0.28660  Biso   1.000  C
  C390     1.0000 0.03130  0.61194  0.33810  Biso   1.000  C
  H151     1.0000 0.05910  0.61140  0.33900  Biso   1.000  H
  C391     1.0000 0.01080  0.61893  0.38960  Biso   1.000  C
  C392     1.0000 0.96930  0.61972  0.38950  Biso   1.000  C
  H152     1.0000 0.95520  0.62390  0.42440  Biso   1.000  H
  C393     1.0000 0.94930  0.61404  0.33580  Biso   1.000  C
  C394     1.0000 0.97030  0.60713  0.28520  Biso   1.000  C
  H153     1.0000 0.95670  0.60330  0.24960  Biso   1.000  H
  C395     1.0000 0.13400  0.56724  0.19670  Biso   1.000  C
  C396     1.0000 0.99120  0.55620  0.92890  Biso   1.000  C
  C397     1.0000 0.98100  0.64763  0.96750  Biso   1.000  C
  C398     1.0000 0.03390  0.62421  0.44710  Biso   1.000  C
  C399     1.0000 0.90460  0.61654  0.33350  Biso   1.000  C
  C400     1.0000 0.79390  0.52372  0.60210  Biso   1.000  C
  C401     1.0000 0.82390  0.50885  0.62380  Biso   1.000  C
  H154     1.0000 0.82770  0.50740  0.66540  Biso   1.000  H
  C402     1.0000 0.84860  0.49601  0.58430  Biso   1.000  C
  C403     1.0000 0.84300  0.49876  0.52270  Biso   1.000  C
  H155     1.0000 0.85920  0.49000  0.49590  Biso   1.000  H
  C404     1.0000 0.81350  0.51430  0.50000  Biso   1.000  C
  C405     1.0000 0.78860  0.52712  0.53950  Biso   1.000  C
  H156     1.0000 0.76890  0.53770  0.52480  Biso   1.000  H
  C406     1.0000 0.88060  0.47922  0.61000  Biso   1.000  C
  C407     1.0000 0.90270  0.48652  0.65940  Biso   1.000  C
  H157     1.0000 0.89810  0.50210  0.67650  Biso   1.000  H
  C408     1.0000 0.93150  0.47148  0.68430  Biso   1.000  C
  C409     1.0000 0.93810  0.44797  0.65900  Biso   1.000  C
  H158     1.0000 0.95720  0.43740  0.67540  Biso   1.000  H
  C410     1.0000 0.91600  0.44068  0.60950  Biso   1.000  C
  C411     1.0000 0.88800  0.45645  0.58460  Biso   1.000  C
  H159     1.0000 0.87390  0.45150  0.55020  Biso   1.000  H
  C412     1.0000 0.81010  0.51929  0.43310  Biso   1.000  C
  C413     1.0000 0.80700  0.49926  0.39170  Biso   1.000  C
  H160     1.0000 0.80640  0.48300  0.40590  Biso   1.000  H
  C414     1.0000 0.80490  0.50385  0.33080  Biso   1.000  C
  C415     1.0000 0.80710  0.52759  0.30910  Biso   1.000  C
  H161     1.0000 0.80740  0.53040  0.26750  Biso   1.000  H
  C416     1.0000 0.80890  0.54784  0.34900  Biso   1.000  C
  C417     1.0000 0.80960  0.54323  0.41110  Biso   1.000  C
  H162     1.0000 0.80980  0.55650  0.43810  Biso   1.000  H
  C418     1.0000 0.76510  0.53578  0.64530  Biso   1.000  C
  C419     1.0000 0.95490  0.48012  0.73670  Biso   1.000  C
  C420     1.0000 0.92130  0.41519  0.58280  Biso   1.000  C
  C421     1.0000 0.80010  0.48252  0.28830  Biso   1.000  C
  C422     1.0000 0.81210  0.57330  0.32540  Biso   1.000  C
  O189     1.0000 0.02180  0.53830  0.93900  Biso   1.000  O
  C423     1.0000 0.00590  0.55800  0.92190  Biso   1.000  C
  In28     1.0000 0.97092  0.02868  0.31868  Biso   1.000  In
  In29     1.0000 0.95772  0.19553  0.46191  Biso   1.000  In
  In30     1.0000 0.92285  0.86946  0.04403  Biso   1.000  In
  O190     1.0000 0.15160  0.05746  0.65340  Biso   1.000  O
  O191     1.0000 0.15021  0.06904  0.74770  Biso   1.000  O
  O192     1.0000 0.98440  0.05980  0.37350  Biso   1.000  O
  O193     1.0000 0.99230  0.03550  0.45200  Biso   1.000  O
  O194     1.0000 0.96380  0.15169  0.42030  Biso   1.000  O
  O195     1.0000 0.98730  0.16505  0.50420  Biso   1.000  O
  O196     1.0000 0.01673  0.12606  0.99740  Biso   1.000  O
  O197     1.0000 0.07105  0.12683  0.94350  Biso   1.000  O
  O198     1.0000 0.88889  0.11152  0.78120  Biso   1.000  O
  O199     1.0000 0.88470  0.12242  0.87740  Biso   1.000  O
  O200     1.0000 0.73320  0.04488  0.12400  Biso   1.000  O
  O201     1.0000 0.77190  0.03667  0.20060  Biso   1.000  O
  O202     1.0000 0.95060  0.00164  0.25260  Biso   1.000  O
  O203     1.0000 0.97890  0.96494  0.25970  Biso   1.000  O
  O204     1.0000 0.94302  0.89931  0.10980  Biso   1.000  O
  O205     1.0000 0.90380  0.90962  0.03460  Biso   1.000  O
  O206     1.0000 0.80940  0.98537  0.73200  Biso   1.000  O
  O207     1.0000 0.78807  0.96200  0.80680  Biso   1.000  O
  O208     1.0000 0.81920  0.07706  0.77030  Biso   1.000  O
  O209     1.0000 0.80770  0.09170  0.86090  Biso   1.000  O
  C424     1.0000 0.09270  0.07709  0.68840  Biso   1.000  C
  C425     1.0000 0.07650  0.07946  0.63050  Biso   1.000  C
  H163     1.0000 0.09010  0.07300  0.59730  Biso   1.000  H
  C426     1.0000 0.04020  0.09140  0.62220  Biso   1.000  C
  C427     1.0000 0.01980  0.10040  0.67340  Biso   1.000  C
  H164     1.0000 0.99550  0.10840  0.66790  Biso   1.000  H
  C428     1.0000 0.03460  0.09760  0.73220  Biso   1.000  C
  C429     1.0000 0.07110  0.08586  0.73920  Biso   1.000  C
  H165     1.0000 0.08150  0.08370  0.77800  Biso   1.000  H
  C430     1.0000 0.02360  0.09555  0.56020  Biso   1.000  C
  C431     1.0000 0.01970  0.07510  0.52060  Biso   1.000  C
  H166     1.0000 0.02900  0.05950  0.53200  Biso   1.000  H
  C432     1.0000 0.00220  0.07849  0.46520  Biso   1.000  C
  C433     1.0000 0.99060  0.10171  0.44550  Biso   1.000  C
  H167     1.0000 0.98060  0.10390  0.40650  Biso   1.000  H
  C434     1.0000 0.99440  0.12210  0.48530  Biso   1.000  C
  C435     1.0000 0.01020  0.11860  0.54290  Biso   1.000  C
  H168     1.0000 0.01170  0.13190  0.56980  Biso   1.000  H
  C436     1.0000 0.01210  0.10583  0.78660  Biso   1.000  C
  C437     1.0000 0.03130  0.11194  0.83810  Biso   1.000  C
  H169     1.0000 0.05910  0.11140  0.83900  Biso   1.000  H
  C438     1.0000 0.01080  0.11893  0.88960  Biso   1.000  C
  C439     1.0000 0.96930  0.11972  0.88950  Biso   1.000  C
  H170     1.0000 0.95520  0.12390  0.92440  Biso   1.000  H
  C440     1.0000 0.94930  0.11404  0.83580  Biso   1.000  C
  C441     1.0000 0.97030  0.10713  0.78520  Biso   1.000  C
  H171     1.0000 0.95670  0.10330  0.74960  Biso   1.000  H
  C442     1.0000 0.13400  0.06724  0.69670  Biso   1.000  C
  C443     1.0000 0.99120  0.05620  0.42890  Biso   1.000  C
  C444     1.0000 0.98100  0.14763  0.46750  Biso   1.000  C
  C445     1.0000 0.03390  0.12421  0.94710  Biso   1.000  C
  C446     1.0000 0.90460  0.11654  0.83350  Biso   1.000  C
  C447     1.0000 0.79390  0.02372  0.10210  Biso   1.000  C
  C448     1.0000 0.82390  0.00885  0.12380  Biso   1.000  C
  H172     1.0000 0.82770  0.00740  0.16540  Biso   1.000  H
  C449     1.0000 0.84860  0.99601  0.08430  Biso   1.000  C
  C450     1.0000 0.84300  0.99876  0.02270  Biso   1.000  C
  H173     1.0000 0.85920  0.99000  0.99590  Biso   1.000  H
  C451     1.0000 0.81350  0.01430  0.00000  Biso   1.000  C
  C452     1.0000 0.78860  0.02712  0.03950  Biso   1.000  C
  H174     1.0000 0.76890  0.03770  0.02480  Biso   1.000  H
  C453     1.0000 0.88060  0.97922  0.11000  Biso   1.000  C
  C454     1.0000 0.90270  0.98652  0.15940  Biso   1.000  C
  H175     1.0000 0.89810  0.00210  0.17650  Biso   1.000  H
  C455     1.0000 0.93150  0.97148  0.18430  Biso   1.000  C
  C456     1.0000 0.93810  0.94797  0.15900  Biso   1.000  C
  H176     1.0000 0.95720  0.93740  0.17540  Biso   1.000  H
  C457     1.0000 0.91600  0.94068  0.10950  Biso   1.000  C
  C458     1.0000 0.88800  0.95645  0.08460  Biso   1.000  C
  H177     1.0000 0.87390  0.95150  0.05020  Biso   1.000  H
  C459     1.0000 0.81010  0.01929  0.93310  Biso   1.000  C
  C460     1.0000 0.80700  0.99926  0.89170  Biso   1.000  C
  H178     1.0000 0.80640  0.98300  0.90590  Biso   1.000  H
  C461     1.0000 0.80490  0.00385  0.83080  Biso   1.000  C
  C462     1.0000 0.80710  0.02759  0.80910  Biso   1.000  C
  H179     1.0000 0.80740  0.03040  0.76750  Biso   1.000  H
  C463     1.0000 0.80890  0.04784  0.84900  Biso   1.000  C
  C464     1.0000 0.80960  0.04323  0.91110  Biso   1.000  C
  H180     1.0000 0.80980  0.05650  0.93810  Biso   1.000  H
  C465     1.0000 0.76510  0.03578  0.14530  Biso   1.000  C
  C466     1.0000 0.95490  0.98012  0.23670  Biso   1.000  C
  C467     1.0000 0.92130  0.91519  0.08280  Biso   1.000  C
  C468     1.0000 0.80010  0.98252  0.78830  Biso   1.000  C
  C469     1.0000 0.81210  0.07330  0.82540  Biso   1.000  C
  O210     1.0000 0.02180  0.03830  0.43900  Biso   1.000  O
  C470     1.0000 0.00590  0.05800  0.42190  Biso   1.000  C
  In31     1.0000 0.47092  0.52868  0.31868  Biso   1.000  In
  In32     1.0000 0.45772  0.69553  0.46191  Biso   1.000  In
  In33     1.0000 0.42285  0.36946  0.04403  Biso   1.000  In
  O211     1.0000 0.65160  0.55746  0.65340  Biso   1.000  O
  O212     1.0000 0.65021  0.56904  0.74770  Biso   1.000  O
  O213     1.0000 0.48440  0.55980  0.37350  Biso   1.000  O
  O214     1.0000 0.49230  0.53550  0.45200  Biso   1.000  O
  O215     1.0000 0.46380  0.65169  0.42030  Biso   1.000  O
  O216     1.0000 0.48730  0.66505  0.50420  Biso   1.000  O
  O217     1.0000 0.51673  0.62606  0.99740  Biso   1.000  O
  O218     1.0000 0.57105  0.62683  0.94350  Biso   1.000  O
  O219     1.0000 0.38889  0.61152  0.78120  Biso   1.000  O
  O220     1.0000 0.38470  0.62242  0.87740  Biso   1.000  O
  O221     1.0000 0.23320  0.54488  0.12400  Biso   1.000  O
  O222     1.0000 0.27190  0.53667  0.20060  Biso   1.000  O
  O223     1.0000 0.45060  0.50164  0.25260  Biso   1.000  O
  O224     1.0000 0.47890  0.46494  0.25970  Biso   1.000  O
  O225     1.0000 0.44302  0.39931  0.10980  Biso   1.000  O
  O226     1.0000 0.40380  0.40962  0.03460  Biso   1.000  O
  O227     1.0000 0.30940  0.48537  0.73200  Biso   1.000  O
  O228     1.0000 0.28807  0.46200  0.80680  Biso   1.000  O
  O229     1.0000 0.31920  0.57706  0.77030  Biso   1.000  O
  O230     1.0000 0.30770  0.59170  0.86090  Biso   1.000  O
  C471     1.0000 0.59270  0.57709  0.68840  Biso   1.000  C
  C472     1.0000 0.57650  0.57946  0.63050  Biso   1.000  C
  H181     1.0000 0.59010  0.57300  0.59730  Biso   1.000  H
  C473     1.0000 0.54020  0.59140  0.62220  Biso   1.000  C
  C474     1.0000 0.51980  0.60040  0.67340  Biso   1.000  C
  H182     1.0000 0.49550  0.60840  0.66790  Biso   1.000  H
  C475     1.0000 0.53460  0.59760  0.73220  Biso   1.000  C
  C476     1.0000 0.57110  0.58586  0.73920  Biso   1.000  C
  H183     1.0000 0.58150  0.58370  0.77800  Biso   1.000  H
  C477     1.0000 0.52360  0.59555  0.56020  Biso   1.000  C
  C478     1.0000 0.51970  0.57510  0.52060  Biso   1.000  C
  H184     1.0000 0.52900  0.55950  0.53200  Biso   1.000  H
  C479     1.0000 0.50220  0.57849  0.46520  Biso   1.000  C
  C480     1.0000 0.49060  0.60171  0.44550  Biso   1.000  C
  H185     1.0000 0.48060  0.60390  0.40650  Biso   1.000  H
  C481     1.0000 0.49440  0.62210  0.48530  Biso   1.000  C
  C482     1.0000 0.51020  0.61860  0.54290  Biso   1.000  C
  H186     1.0000 0.51170  0.63190  0.56980  Biso   1.000  H
  C483     1.0000 0.51210  0.60583  0.78660  Biso   1.000  C
  C484     1.0000 0.53130  0.61194  0.83810  Biso   1.000  C
  H187     1.0000 0.55910  0.61140  0.83900  Biso   1.000  H
  C485     1.0000 0.51080  0.61893  0.88960  Biso   1.000  C
  C486     1.0000 0.46930  0.61972  0.88950  Biso   1.000  C
  H188     1.0000 0.45520  0.62390  0.92440  Biso   1.000  H
  C487     1.0000 0.44930  0.61404  0.83580  Biso   1.000  C
  C488     1.0000 0.47030  0.60713  0.78520  Biso   1.000  C
  H189     1.0000 0.45670  0.60330  0.74960  Biso   1.000  H
  C489     1.0000 0.63400  0.56724  0.69670  Biso   1.000  C
  C490     1.0000 0.49120  0.55620  0.42890  Biso   1.000  C
  C491     1.0000 0.48100  0.64763  0.46750  Biso   1.000  C
  C492     1.0000 0.53390  0.62421  0.94710  Biso   1.000  C
  C493     1.0000 0.40460  0.61654  0.83350  Biso   1.000  C
  C494     1.0000 0.29390  0.52372  0.10210  Biso   1.000  C
  C495     1.0000 0.32390  0.50885  0.12380  Biso   1.000  C
  H190     1.0000 0.32770  0.50740  0.16540  Biso   1.000  H
  C496     1.0000 0.34860  0.49601  0.08430  Biso   1.000  C
  C497     1.0000 0.34300  0.49876  0.02270  Biso   1.000  C
  H191     1.0000 0.35920  0.49000  0.99590  Biso   1.000  H
  C498     1.0000 0.31350  0.51430  0.00000  Biso   1.000  C
  C499     1.0000 0.28860  0.52712  0.03950  Biso   1.000  C
  H192     1.0000 0.26890  0.53770  0.02480  Biso   1.000  H
  C500     1.0000 0.38060  0.47922  0.11000  Biso   1.000  C
  C501     1.0000 0.40270  0.48652  0.15940  Biso   1.000  C
  H193     1.0000 0.39810  0.50210  0.17650  Biso   1.000  H
  C502     1.0000 0.43150  0.47148  0.18430  Biso   1.000  C
  C503     1.0000 0.43810  0.44797  0.15900  Biso   1.000  C
  H194     1.0000 0.45720  0.43740  0.17540  Biso   1.000  H
  C504     1.0000 0.41600  0.44068  0.10950  Biso   1.000  C
  C505     1.0000 0.38800  0.45645  0.08460  Biso   1.000  C
  H195     1.0000 0.37390  0.45150  0.05020  Biso   1.000  H
  C506     1.0000 0.31010  0.51929  0.93310  Biso   1.000  C
  C507     1.0000 0.30700  0.49926  0.89170  Biso   1.000  C
  H196     1.0000 0.30640  0.48300  0.90590  Biso   1.000  H
  C508     1.0000 0.30490  0.50385  0.83080  Biso   1.000  C
  C509     1.0000 0.30710  0.52759  0.80910  Biso   1.000  C
  H197     1.0000 0.30740  0.53040  0.76750  Biso   1.000  H
  C510     1.0000 0.30890  0.54784  0.84900  Biso   1.000  C
  C511     1.0000 0.30960  0.54323  0.91110  Biso   1.000  C
  H198     1.0000 0.30980  0.55650  0.93810  Biso   1.000  H
  C512     1.0000 0.26510  0.53578  0.14530  Biso   1.000  C
  C513     1.0000 0.45490  0.48012  0.23670  Biso   1.000  C
  C514     1.0000 0.42130  0.41519  0.08280  Biso   1.000  C
  C515     1.0000 0.30010  0.48252  0.78830  Biso   1.000  C
  C516     1.0000 0.31210  0.57330  0.82540  Biso   1.000  C
  O231     1.0000 0.52180  0.53830  0.43900  Biso   1.000  O
  C517     1.0000 0.50590  0.55800  0.42190  Biso   1.000  C
  In34     1.0000 0.47092  0.02868  0.81868  Biso   1.000  In
  In35     1.0000 0.45772  0.19553  0.96191  Biso   1.000  In
  In36     1.0000 0.42285  0.86946  0.54403  Biso   1.000  In
  O232     1.0000 0.65160  0.05746  0.15340  Biso   1.000  O
  O233     1.0000 0.65021  0.06904  0.24770  Biso   1.000  O
  O234     1.0000 0.48440  0.05980  0.87350  Biso   1.000  O
  O235     1.0000 0.49230  0.03550  0.95200  Biso   1.000  O
  O236     1.0000 0.46380  0.15169  0.92030  Biso   1.000  O
  O237     1.0000 0.48730  0.16505  0.00420  Biso   1.000  O
  O238     1.0000 0.51673  0.12606  0.49740  Biso   1.000  O
  O239     1.0000 0.57105  0.12683  0.44350  Biso   1.000  O
  O240     1.0000 0.38889  0.11152  0.28120  Biso   1.000  O
  O241     1.0000 0.38470  0.12242  0.37740  Biso   1.000  O
  O242     1.0000 0.23320  0.04488  0.62400  Biso   1.000  O
  O243     1.0000 0.27190  0.03667  0.70060  Biso   1.000  O
  O244     1.0000 0.45060  0.00164  0.75260  Biso   1.000  O
  O245     1.0000 0.47890  0.96494  0.75970  Biso   1.000  O
  O246     1.0000 0.44302  0.89931  0.60980  Biso   1.000  O
  O247     1.0000 0.40380  0.90962  0.53460  Biso   1.000  O
  O248     1.0000 0.30940  0.98537  0.23200  Biso   1.000  O
  O249     1.0000 0.28807  0.96200  0.30680  Biso   1.000  O
  O250     1.0000 0.31920  0.07706  0.27030  Biso   1.000  O
  O251     1.0000 0.30770  0.09170  0.36090  Biso   1.000  O
  C518     1.0000 0.59270  0.07709  0.18840  Biso   1.000  C
  C519     1.0000 0.57650  0.07946  0.13050  Biso   1.000  C
  H199     1.0000 0.59010  0.07300  0.09730  Biso   1.000  H
  C520     1.0000 0.54020  0.09140  0.12220  Biso   1.000  C
  C521     1.0000 0.51980  0.10040  0.17340  Biso   1.000  C
  H200     1.0000 0.49550  0.10840  0.16790  Biso   1.000  H
  C522     1.0000 0.53460  0.09760  0.23220  Biso   1.000  C
  C523     1.0000 0.57110  0.08586  0.23920  Biso   1.000  C
  H201     1.0000 0.58150  0.08370  0.27800  Biso   1.000  H
  C524     1.0000 0.52360  0.09555  0.06020  Biso   1.000  C
  C525     1.0000 0.51970  0.07510  0.02060  Biso   1.000  C
  H202     1.0000 0.52900  0.05950  0.03200  Biso   1.000  H
  C526     1.0000 0.50220  0.07849  0.96520  Biso   1.000  C
  C527     1.0000 0.49060  0.10171  0.94550  Biso   1.000  C
  H203     1.0000 0.48060  0.10390  0.90650  Biso   1.000  H
  C528     1.0000 0.49440  0.12210  0.98530  Biso   1.000  C
  C529     1.0000 0.51020  0.11860  0.04290  Biso   1.000  C
  H204     1.0000 0.51170  0.13190  0.06980  Biso   1.000  H
  C530     1.0000 0.51210  0.10583  0.28660  Biso   1.000  C
  C531     1.0000 0.53130  0.11194  0.33810  Biso   1.000  C
  H205     1.0000 0.55910  0.11140  0.33900  Biso   1.000  H
  C532     1.0000 0.51080  0.11893  0.38960  Biso   1.000  C
  C533     1.0000 0.46930  0.11972  0.38950  Biso   1.000  C
  H206     1.0000 0.45520  0.12390  0.42440  Biso   1.000  H
  C534     1.0000 0.44930  0.11404  0.33580  Biso   1.000  C
  C535     1.0000 0.47030  0.10713  0.28520  Biso   1.000  C
  H207     1.0000 0.45670  0.10330  0.24960  Biso   1.000  H
  C536     1.0000 0.63400  0.06724  0.19670  Biso   1.000  C
  C537     1.0000 0.49120  0.05620  0.92890  Biso   1.000  C
  C538     1.0000 0.48100  0.14763  0.96750  Biso   1.000  C
  C539     1.0000 0.53390  0.12421  0.44710  Biso   1.000  C
  C540     1.0000 0.40460  0.11654  0.33350  Biso   1.000  C
  C541     1.0000 0.29390  0.02372  0.60210  Biso   1.000  C
  C542     1.0000 0.32390  0.00885  0.62380  Biso   1.000  C
  H208     1.0000 0.32770  0.00740  0.66540  Biso   1.000  H
  C543     1.0000 0.34860  0.99601  0.58430  Biso   1.000  C
  C544     1.0000 0.34300  0.99876  0.52270  Biso   1.000  C
  H209     1.0000 0.35920  0.99000  0.49590  Biso   1.000  H
  C545     1.0000 0.31350  0.01430  0.50000  Biso   1.000  C
  C546     1.0000 0.28860  0.02712  0.53950  Biso   1.000  C
  H210     1.0000 0.26890  0.03770  0.52480  Biso   1.000  H
  C547     1.0000 0.38060  0.97922  0.61000  Biso   1.000  C
  C548     1.0000 0.40270  0.98652  0.65940  Biso   1.000  C
  H211     1.0000 0.39810  0.00210  0.67650  Biso   1.000  H
  C549     1.0000 0.43150  0.97148  0.68430  Biso   1.000  C
  C550     1.0000 0.43810  0.94797  0.65900  Biso   1.000  C
  H212     1.0000 0.45720  0.93740  0.67540  Biso   1.000  H
  C551     1.0000 0.41600  0.94068  0.60950  Biso   1.000  C
  C552     1.0000 0.38800  0.95645  0.58460  Biso   1.000  C
  H213     1.0000 0.37390  0.95150  0.55020  Biso   1.000  H
  C553     1.0000 0.31010  0.01929  0.43310  Biso   1.000  C
  C554     1.0000 0.30700  0.99926  0.39170  Biso   1.000  C
  H214     1.0000 0.30640  0.98300  0.40590  Biso   1.000  H
  C555     1.0000 0.30490  0.00385  0.33080  Biso   1.000  C
  C556     1.0000 0.30710  0.02759  0.30910  Biso   1.000  C
  H215     1.0000 0.30740  0.03040  0.26750  Biso   1.000  H
  C557     1.0000 0.30890  0.04784  0.34900  Biso   1.000  C
  C558     1.0000 0.30960  0.04323  0.41110  Biso   1.000  C
  H216     1.0000 0.30980  0.05650  0.43810  Biso   1.000  H
  C559     1.0000 0.26510  0.03578  0.64530  Biso   1.000  C
  C560     1.0000 0.45490  0.98012  0.73670  Biso   1.000  C
  C561     1.0000 0.42130  0.91519  0.58280  Biso   1.000  C
  C562     1.0000 0.30010  0.98252  0.28830  Biso   1.000  C
  C563     1.0000 0.31210  0.07330  0.32540  Biso   1.000  C
  O252     1.0000 0.52180  0.03830  0.93900  Biso   1.000  O
  C564     1.0000 0.50590  0.05800  0.92190  Biso   1.000  C
  In37     1.0000 0.52908  0.97132  0.81868  Biso   1.000  In
  In38     1.0000 0.54228  0.80447  0.96191  Biso   1.000  In
  In39     1.0000 0.57715  0.13054  0.54403  Biso   1.000  In
  O253     1.0000 0.34840  0.94254  0.15340  Biso   1.000  O
  O254     1.0000 0.34979  0.93096  0.24770  Biso   1.000  O
  O255     1.0000 0.51560  0.94020  0.87350  Biso   1.000  O
  O256     1.0000 0.50770  0.96450  0.95200  Biso   1.000  O
  O257     1.0000 0.53620  0.84831  0.92030  Biso   1.000  O
  O258     1.0000 0.51270  0.83495  0.00420  Biso   1.000  O
  O259     1.0000 0.48327  0.87394  0.49740  Biso   1.000  O
  O260     1.0000 0.42895  0.87317  0.44350  Biso   1.000  O
  O261     1.0000 0.61111  0.88848  0.28120  Biso   1.000  O
  O262     1.0000 0.61530  0.87758  0.37740  Biso   1.000  O
  O263     1.0000 0.76680  0.95512  0.62400  Biso   1.000  O
  O264     1.0000 0.72810  0.96333  0.70060  Biso   1.000  O
  O265     1.0000 0.54940  0.99836  0.75260  Biso   1.000  O
  O266     1.0000 0.52110  0.03506  0.75970  Biso   1.000  O
  O267     1.0000 0.55698  0.10069  0.60980  Biso   1.000  O
  O268     1.0000 0.59620  0.09038  0.53460  Biso   1.000  O
  O269     1.0000 0.69060  0.01463  0.23200  Biso   1.000  O
  O270     1.0000 0.71193  0.03800  0.30680  Biso   1.000  O
  O271     1.0000 0.68080  0.92294  0.27030  Biso   1.000  O
  O272     1.0000 0.69230  0.90830  0.36090  Biso   1.000  O
  C565     1.0000 0.40730  0.92291  0.18840  Biso   1.000  C
  C566     1.0000 0.42350  0.92054  0.13050  Biso   1.000  C
  H217     1.0000 0.40990  0.92700  0.09730  Biso   1.000  H
  C567     1.0000 0.45980  0.90860  0.12220  Biso   1.000  C
  C568     1.0000 0.48020  0.89960  0.17340  Biso   1.000  C
  H218     1.0000 0.50450  0.89160  0.16790  Biso   1.000  H
  C569     1.0000 0.46540  0.90240  0.23220  Biso   1.000  C
  C570     1.0000 0.42890  0.91414  0.23920  Biso   1.000  C
  H219     1.0000 0.41850  0.91630  0.27800  Biso   1.000  H
  C571     1.0000 0.47640  0.90445  0.06020  Biso   1.000  C
  C572     1.0000 0.48030  0.92490  0.02060  Biso   1.000  C
  H220     1.0000 0.47100  0.94050  0.03200  Biso   1.000  H
  C573     1.0000 0.49780  0.92151  0.96520  Biso   1.000  C
  C574     1.0000 0.50940  0.89829  0.94550  Biso   1.000  C
  H221     1.0000 0.51940  0.89610  0.90650  Biso   1.000  H
  C575     1.0000 0.50560  0.87790  0.98530  Biso   1.000  C
  C576     1.0000 0.48980  0.88140  0.04290  Biso   1.000  C
  H222     1.0000 0.48830  0.86810  0.06980  Biso   1.000  H
  C577     1.0000 0.48790  0.89417  0.28660  Biso   1.000  C
  C578     1.0000 0.46870  0.88806  0.33810  Biso   1.000  C
  H223     1.0000 0.44090  0.88860  0.33900  Biso   1.000  H
  C579     1.0000 0.48920  0.88107  0.38960  Biso   1.000  C
  C580     1.0000 0.53070  0.88028  0.38950  Biso   1.000  C
  H224     1.0000 0.54480  0.87610  0.42440  Biso   1.000  H
  C581     1.0000 0.55070  0.88596  0.33580  Biso   1.000  C
  C582     1.0000 0.52970  0.89287  0.28520  Biso   1.000  C
  H225     1.0000 0.54330  0.89670  0.24960  Biso   1.000  H
  C583     1.0000 0.36600  0.93276  0.19670  Biso   1.000  C
  C584     1.0000 0.50880  0.94380  0.92890  Biso   1.000  C
  C585     1.0000 0.51900  0.85237  0.96750  Biso   1.000  C
  C586     1.0000 0.46610  0.87579  0.44710  Biso   1.000  C
  C587     1.0000 0.59540  0.88346  0.33350  Biso   1.000  C
  C588     1.0000 0.70610  0.97628  0.60210  Biso   1.000  C
  C589     1.0000 0.67610  0.99115  0.62380  Biso   1.000  C
  H226     1.0000 0.67230  0.99260  0.66540  Biso   1.000  H
  C590     1.0000 0.65140  0.00399  0.58430  Biso   1.000  C
  C591     1.0000 0.65700  0.00124  0.52270  Biso   1.000  C
  H227     1.0000 0.64080  0.01000  0.49590  Biso   1.000  H
  C592     1.0000 0.68650  0.98570  0.50000  Biso   1.000  C
  C593     1.0000 0.71140  0.97288  0.53950  Biso   1.000  C
  H228     1.0000 0.73110  0.96230  0.52480  Biso   1.000  H
  C594     1.0000 0.61940  0.02078  0.61000  Biso   1.000  C
  C595     1.0000 0.59730  0.01348  0.65940  Biso   1.000  C
  H229     1.0000 0.60190  0.99790  0.67650  Biso   1.000  H
  C596     1.0000 0.56850  0.02852  0.68430  Biso   1.000  C
  C597     1.0000 0.56190  0.05203  0.65900  Biso   1.000  C
  H230     1.0000 0.54280  0.06260  0.67540  Biso   1.000  H
  C598     1.0000 0.58400  0.05932  0.60950  Biso   1.000  C
  C599     1.0000 0.61200  0.04355  0.58460  Biso   1.000  C
  H231     1.0000 0.62610  0.04850  0.55020  Biso   1.000  H
  C600     1.0000 0.68990  0.98071  0.43310  Biso   1.000  C
  C601     1.0000 0.69300  0.00074  0.39170  Biso   1.000  C
  H232     1.0000 0.69360  0.01700  0.40590  Biso   1.000  H
  C602     1.0000 0.69510  0.99615  0.33080  Biso   1.000  C
  C603     1.0000 0.69290  0.97241  0.30910  Biso   1.000  C
  H233     1.0000 0.69260  0.96960  0.26750  Biso   1.000  H
  C604     1.0000 0.69110  0.95216  0.34900  Biso   1.000  C
  C605     1.0000 0.69040  0.95677  0.41110  Biso   1.000  C
  H234     1.0000 0.69020  0.94350  0.43810  Biso   1.000  H
  C606     1.0000 0.73490  0.96422  0.64530  Biso   1.000  C
  C607     1.0000 0.54510  0.01988  0.73670  Biso   1.000  C
  C608     1.0000 0.57870  0.08481  0.58280  Biso   1.000  C
  C609     1.0000 0.69990  0.01748  0.28830  Biso   1.000  C
  C610     1.0000 0.68790  0.92670  0.32540  Biso   1.000  C
  O273     1.0000 0.47820  0.96170  0.93900  Biso   1.000  O
  C611     1.0000 0.49410  0.94200  0.92190  Biso   1.000  C
  In40     1.0000 0.52908  0.47132  0.31868  Biso   1.000  In
  In41     1.0000 0.54228  0.30447  0.46191  Biso   1.000  In
  In42     1.0000 0.57715  0.63054  0.04403  Biso   1.000  In
  O274     1.0000 0.34840  0.44254  0.65340  Biso   1.000  O
  O275     1.0000 0.34979  0.43096  0.74770  Biso   1.000  O
  O276     1.0000 0.51560  0.44020  0.37350  Biso   1.000  O
  O277     1.0000 0.50770  0.46450  0.45200  Biso   1.000  O
  O278     1.0000 0.53620  0.34831  0.42030  Biso   1.000  O
  O279     1.0000 0.51270  0.33495  0.50420  Biso   1.000  O
  O280     1.0000 0.48327  0.37394  0.99740  Biso   1.000  O
  O281     1.0000 0.42895  0.37317  0.94350  Biso   1.000  O
  O282     1.0000 0.61111  0.38848  0.78120  Biso   1.000  O
  O283     1.0000 0.61530  0.37758  0.87740  Biso   1.000  O
  O284     1.0000 0.76680  0.45512  0.12400  Biso   1.000  O
  O285     1.0000 0.72810  0.46333  0.20060  Biso   1.000  O
  O286     1.0000 0.54940  0.49836  0.25260  Biso   1.000  O
  O287     1.0000 0.52110  0.53506  0.25970  Biso   1.000  O
  O288     1.0000 0.55698  0.60069  0.10980  Biso   1.000  O
  O289     1.0000 0.59620  0.59038  0.03460  Biso   1.000  O
  O290     1.0000 0.69060  0.51463  0.73200  Biso   1.000  O
  O291     1.0000 0.71193  0.53800  0.80680  Biso   1.000  O
  O292     1.0000 0.68080  0.42294  0.77030  Biso   1.000  O
  O293     1.0000 0.69230  0.40830  0.86090  Biso   1.000  O
  C612     1.0000 0.40730  0.42291  0.68840  Biso   1.000  C
  C613     1.0000 0.42350  0.42054  0.63050  Biso   1.000  C
  H235     1.0000 0.40990  0.42700  0.59730  Biso   1.000  H
  C614     1.0000 0.45980  0.40860  0.62220  Biso   1.000  C
  C615     1.0000 0.48020  0.39960  0.67340  Biso   1.000  C
  H236     1.0000 0.50450  0.39160  0.66790  Biso   1.000  H
  C616     1.0000 0.46540  0.40240  0.73220  Biso   1.000  C
  C617     1.0000 0.42890  0.41414  0.73920  Biso   1.000  C
  H237     1.0000 0.41850  0.41630  0.77800  Biso   1.000  H
  C618     1.0000 0.47640  0.40445  0.56020  Biso   1.000  C
  C619     1.0000 0.48030  0.42490  0.52060  Biso   1.000  C
  H238     1.0000 0.47100  0.44050  0.53200  Biso   1.000  H
  C620     1.0000 0.49780  0.42151  0.46520  Biso   1.000  C
  C621     1.0000 0.50940  0.39829  0.44550  Biso   1.000  C
  H239     1.0000 0.51940  0.39610  0.40650  Biso   1.000  H
  C622     1.0000 0.50560  0.37790  0.48530  Biso   1.000  C
  C623     1.0000 0.48980  0.38140  0.54290  Biso   1.000  C
  H240     1.0000 0.48830  0.36810  0.56980  Biso   1.000  H
  C624     1.0000 0.48790  0.39417  0.78660  Biso   1.000  C
  C625     1.0000 0.46870  0.38806  0.83810  Biso   1.000  C
  H241     1.0000 0.44090  0.38860  0.83900  Biso   1.000  H
  C626     1.0000 0.48920  0.38107  0.88960  Biso   1.000  C
  C627     1.0000 0.53070  0.38028  0.88950  Biso   1.000  C
  H242     1.0000 0.54480  0.37610  0.92440  Biso   1.000  H
  C628     1.0000 0.55070  0.38596  0.83580  Biso   1.000  C
  C629     1.0000 0.52970  0.39287  0.78520  Biso   1.000  C
  H243     1.0000 0.54330  0.39670  0.74960  Biso   1.000  H
  C630     1.0000 0.36600  0.43276  0.69670  Biso   1.000  C
  C631     1.0000 0.50880  0.44380  0.42890  Biso   1.000  C
  C632     1.0000 0.51900  0.35237  0.46750  Biso   1.000  C
  C633     1.0000 0.46610  0.37579  0.94710  Biso   1.000  C
  C634     1.0000 0.59540  0.38346  0.83350  Biso   1.000  C
  C635     1.0000 0.70610  0.47628  0.10210  Biso   1.000  C
  C636     1.0000 0.67610  0.49115  0.12380  Biso   1.000  C
  H244     1.0000 0.67230  0.49260  0.16540  Biso   1.000  H
  C637     1.0000 0.65140  0.50399  0.08430  Biso   1.000  C
  C638     1.0000 0.65700  0.50124  0.02270  Biso   1.000  C
  H245     1.0000 0.64080  0.51000  0.99590  Biso   1.000  H
  C639     1.0000 0.68650  0.48570  0.00000  Biso   1.000  C
  C640     1.0000 0.71140  0.47288  0.03950  Biso   1.000  C
  H246     1.0000 0.73110  0.46230  0.02480  Biso   1.000  H
  C641     1.0000 0.61940  0.52078  0.11000  Biso   1.000  C
  C642     1.0000 0.59730  0.51348  0.15940  Biso   1.000  C
  H247     1.0000 0.60190  0.49790  0.17650  Biso   1.000  H
  C643     1.0000 0.56850  0.52852  0.18430  Biso   1.000  C
  C644     1.0000 0.56190  0.55203  0.15900  Biso   1.000  C
  H248     1.0000 0.54280  0.56260  0.17540  Biso   1.000  H
  C645     1.0000 0.58400  0.55932  0.10950  Biso   1.000  C
  C646     1.0000 0.61200  0.54355  0.08460  Biso   1.000  C
  H249     1.0000 0.62610  0.54850  0.05020  Biso   1.000  H
  C647     1.0000 0.68990  0.48071  0.93310  Biso   1.000  C
  C648     1.0000 0.69300  0.50074  0.89170  Biso   1.000  C
  H250     1.0000 0.69360  0.51700  0.90590  Biso   1.000  H
  C649     1.0000 0.69510  0.49615  0.83080  Biso   1.000  C
  C650     1.0000 0.69290  0.47241  0.80910  Biso   1.000  C
  H251     1.0000 0.69260  0.46960  0.76750  Biso   1.000  H
  C651     1.0000 0.69110  0.45216  0.84900  Biso   1.000  C
  C652     1.0000 0.69040  0.45677  0.91110  Biso   1.000  C
  H252     1.0000 0.69020  0.44350  0.93810  Biso   1.000  H
  C653     1.0000 0.73490  0.46422  0.14530  Biso   1.000  C
  C654     1.0000 0.54510  0.51988  0.23670  Biso   1.000  C
  C655     1.0000 0.57870  0.58481  0.08280  Biso   1.000  C
  C656     1.0000 0.69990  0.51748  0.78830  Biso   1.000  C
  C657     1.0000 0.68790  0.42670  0.82540  Biso   1.000  C
  O294     1.0000 0.47820  0.46170  0.43900  Biso   1.000  O
  C658     1.0000 0.49410  0.44200  0.42190  Biso   1.000  C
  In43     1.0000 0.02908  0.97132  0.31868  Biso   1.000  In
  In44     1.0000 0.04228  0.80447  0.46191  Biso   1.000  In
  In45     1.0000 0.07715  0.13054  0.04403  Biso   1.000  In
  O295     1.0000 0.84840  0.94254  0.65340  Biso   1.000  O
  O296     1.0000 0.84979  0.93096  0.74770  Biso   1.000  O
  O297     1.0000 0.01560  0.94020  0.37350  Biso   1.000  O
  O298     1.0000 0.00770  0.96450  0.45200  Biso   1.000  O
  O299     1.0000 0.03620  0.84831  0.42030  Biso   1.000  O
  O300     1.0000 0.01270  0.83495  0.50420  Biso   1.000  O
  O301     1.0000 0.98327  0.87394  0.99740  Biso   1.000  O
  O302     1.0000 0.92895  0.87317  0.94350  Biso   1.000  O
  O303     1.0000 0.11111  0.88848  0.78120  Biso   1.000  O
  O304     1.0000 0.11530  0.87758  0.87740  Biso   1.000  O
  O305     1.0000 0.26680  0.95512  0.12400  Biso   1.000  O
  O306     1.0000 0.22810  0.96333  0.20060  Biso   1.000  O
  O307     1.0000 0.04940  0.99836  0.25260  Biso   1.000  O
  O308     1.0000 0.02110  0.03506  0.25970  Biso   1.000  O
  O309     1.0000 0.05698  0.10069  0.10980  Biso   1.000  O
  O310     1.0000 0.09620  0.09038  0.03460  Biso   1.000  O
  O311     1.0000 0.19060  0.01463  0.73200  Biso   1.000  O
  O312     1.0000 0.21193  0.03800  0.80680  Biso   1.000  O
  O313     1.0000 0.18080  0.92294  0.77030  Biso   1.000  O
  O314     1.0000 0.19230  0.90830  0.86090  Biso   1.000  O
  C659     1.0000 0.90730  0.92291  0.68840  Biso   1.000  C
  C660     1.0000 0.92350  0.92054  0.63050  Biso   1.000  C
  H253     1.0000 0.90990  0.92700  0.59730  Biso   1.000  H
  C661     1.0000 0.95980  0.90860  0.62220  Biso   1.000  C
  C662     1.0000 0.98020  0.89960  0.67340  Biso   1.000  C
  H254     1.0000 0.00450  0.89160  0.66790  Biso   1.000  H
  C663     1.0000 0.96540  0.90240  0.73220  Biso   1.000  C
  C664     1.0000 0.92890  0.91414  0.73920  Biso   1.000  C
  H255     1.0000 0.91850  0.91630  0.77800  Biso   1.000  H
  C665     1.0000 0.97640  0.90445  0.56020  Biso   1.000  C
  C666     1.0000 0.98030  0.92490  0.52060  Biso   1.000  C
  H256     1.0000 0.97100  0.94050  0.53200  Biso   1.000  H
  C667     1.0000 0.99780  0.92151  0.46520  Biso   1.000  C
  C668     1.0000 0.00940  0.89829  0.44550  Biso   1.000  C
  H257     1.0000 0.01940  0.89610  0.40650  Biso   1.000  H
  C669     1.0000 0.00560  0.87790  0.48530  Biso   1.000  C
  C670     1.0000 0.98980  0.88140  0.54290  Biso   1.000  C
  H258     1.0000 0.98830  0.86810  0.56980  Biso   1.000  H
  C671     1.0000 0.98790  0.89417  0.78660  Biso   1.000  C
  C672     1.0000 0.96870  0.88806  0.83810  Biso   1.000  C
  H259     1.0000 0.94090  0.88860  0.83900  Biso   1.000  H
  C673     1.0000 0.98920  0.88107  0.88960  Biso   1.000  C
  C674     1.0000 0.03070  0.88028  0.88950  Biso   1.000  C
  H260     1.0000 0.04480  0.87610  0.92440  Biso   1.000  H
  C675     1.0000 0.05070  0.88596  0.83580  Biso   1.000  C
  C676     1.0000 0.02970  0.89287  0.78520  Biso   1.000  C
  H261     1.0000 0.04330  0.89670  0.74960  Biso   1.000  H
  C677     1.0000 0.86600  0.93276  0.69670  Biso   1.000  C
  C678     1.0000 0.00880  0.94380  0.42890  Biso   1.000  C
  C679     1.0000 0.01900  0.85237  0.46750  Biso   1.000  C
  C680     1.0000 0.96610  0.87579  0.94710  Biso   1.000  C
  C681     1.0000 0.09540  0.88346  0.83350  Biso   1.000  C
  C682     1.0000 0.20610  0.97628  0.10210  Biso   1.000  C
  C683     1.0000 0.17610  0.99115  0.12380  Biso   1.000  C
  H262     1.0000 0.17230  0.99260  0.16540  Biso   1.000  H
  C684     1.0000 0.15140  0.00399  0.08430  Biso   1.000  C
  C685     1.0000 0.15700  0.00124  0.02270  Biso   1.000  C
  H263     1.0000 0.14080  0.01000  0.99590  Biso   1.000  H
  C686     1.0000 0.18650  0.98570  0.00000  Biso   1.000  C
  C687     1.0000 0.21140  0.97288  0.03950  Biso   1.000  C
  H264     1.0000 0.23110  0.96230  0.02480  Biso   1.000  H
  C688     1.0000 0.11940  0.02078  0.11000  Biso   1.000  C
  C689     1.0000 0.09730  0.01348  0.15940  Biso   1.000  C
  H265     1.0000 0.10190  0.99790  0.17650  Biso   1.000  H
  C690     1.0000 0.06850  0.02852  0.18430  Biso   1.000  C
  C691     1.0000 0.06190  0.05203  0.15900  Biso   1.000  C
  H266     1.0000 0.04280  0.06260  0.17540  Biso   1.000  H
  C692     1.0000 0.08400  0.05932  0.10950  Biso   1.000  C
  C693     1.0000 0.11200  0.04355  0.08460  Biso   1.000  C
  H267     1.0000 0.12610  0.04850  0.05020  Biso   1.000  H
  C694     1.0000 0.18990  0.98071  0.93310  Biso   1.000  C
  C695     1.0000 0.19300  0.00074  0.89170  Biso   1.000  C
  H268     1.0000 0.19360  0.01700  0.90590  Biso   1.000  H
  C696     1.0000 0.19510  0.99615  0.83080  Biso   1.000  C
  C697     1.0000 0.19290  0.97241  0.80910  Biso   1.000  C
  H269     1.0000 0.19260  0.96960  0.76750  Biso   1.000  H
  C698     1.0000 0.19110  0.95216  0.84900  Biso   1.000  C
  C699     1.0000 0.19040  0.95677  0.91110  Biso   1.000  C
  H270     1.0000 0.19020  0.94350  0.93810  Biso   1.000  H
  C700     1.0000 0.23490  0.96422  0.14530  Biso   1.000  C
  C701     1.0000 0.04510  0.01988  0.23670  Biso   1.000  C
  C702     1.0000 0.07870  0.08481  0.08280  Biso   1.000  C
  C703     1.0000 0.19990  0.01748  0.78830  Biso   1.000  C
  C704     1.0000 0.18790  0.92670  0.82540  Biso   1.000  C
  O315     1.0000 0.97820  0.96170  0.43900  Biso   1.000  O
  C705     1.0000 0.99410  0.94200  0.42190  Biso   1.000  C
  In46     1.0000 0.02908  0.47132  0.81868  Biso   1.000  In
  In47     1.0000 0.04228  0.30447  0.96191  Biso   1.000  In
  In48     1.0000 0.07715  0.63054  0.54403  Biso   1.000  In
  O316     1.0000 0.84840  0.44254  0.15340  Biso   1.000  O
  O317     1.0000 0.84979  0.43096  0.24770  Biso   1.000  O
  O318     1.0000 0.01560  0.44020  0.87350  Biso   1.000  O
  O319     1.0000 0.00770  0.46450  0.95200  Biso   1.000  O
  O320     1.0000 0.03620  0.34831  0.92030  Biso   1.000  O
  O321     1.0000 0.01270  0.33495  0.00420  Biso   1.000  O
  O322     1.0000 0.98327  0.37394  0.49740  Biso   1.000  O
  O323     1.0000 0.92895  0.37317  0.44350  Biso   1.000  O
  O324     1.0000 0.11111  0.38848  0.28120  Biso   1.000  O
  O325     1.0000 0.11530  0.37758  0.37740  Biso   1.000  O
  O326     1.0000 0.26680  0.45512  0.62400  Biso   1.000  O
  O327     1.0000 0.22810  0.46333  0.70060  Biso   1.000  O
  O328     1.0000 0.04940  0.49836  0.75260  Biso   1.000  O
  O329     1.0000 0.02110  0.53506  0.75970  Biso   1.000  O
  O330     1.0000 0.05698  0.60069  0.60980  Biso   1.000  O
  O331     1.0000 0.09620  0.59038  0.53460  Biso   1.000  O
  O332     1.0000 0.19060  0.51463  0.23200  Biso   1.000  O
  O333     1.0000 0.21193  0.53800  0.30680  Biso   1.000  O
  O334     1.0000 0.18080  0.42294  0.27030  Biso   1.000  O
  O335     1.0000 0.19230  0.40830  0.36090  Biso   1.000  O
  C706     1.0000 0.90730  0.42291  0.18840  Biso   1.000  C
  C707     1.0000 0.92350  0.42054  0.13050  Biso   1.000  C
  H271     1.0000 0.90990  0.42700  0.09730  Biso   1.000  H
  C708     1.0000 0.95980  0.40860  0.12220  Biso   1.000  C
  C709     1.0000 0.98020  0.39960  0.17340  Biso   1.000  C
  H272     1.0000 0.00450  0.39160  0.16790  Biso   1.000  H
  C710     1.0000 0.96540  0.40240  0.23220  Biso   1.000  C
  C711     1.0000 0.92890  0.41414  0.23920  Biso   1.000  C
  H273     1.0000 0.91850  0.41630  0.27800  Biso   1.000  H
  C712     1.0000 0.97640  0.40445  0.06020  Biso   1.000  C
  C713     1.0000 0.98030  0.42490  0.02060  Biso   1.000  C
  H274     1.0000 0.97100  0.44050  0.03200  Biso   1.000  H
  C714     1.0000 0.99780  0.42151  0.96520  Biso   1.000  C
  C715     1.0000 0.00940  0.39829  0.94550  Biso   1.000  C
  H275     1.0000 0.01940  0.39610  0.90650  Biso   1.000  H
  C716     1.0000 0.00560  0.37790  0.98530  Biso   1.000  C
  C717     1.0000 0.98980  0.38140  0.04290  Biso   1.000  C
  H276     1.0000 0.98830  0.36810  0.06980  Biso   1.000  H
  C718     1.0000 0.98790  0.39417  0.28660  Biso   1.000  C
  C719     1.0000 0.96870  0.38806  0.33810  Biso   1.000  C
  H277     1.0000 0.94090  0.38860  0.33900  Biso   1.000  H
  C720     1.0000 0.98920  0.38107  0.38960  Biso   1.000  C
  C721     1.0000 0.03070  0.38028  0.38950  Biso   1.000  C
  H278     1.0000 0.04480  0.37610  0.42440  Biso   1.000  H
  C722     1.0000 0.05070  0.38596  0.33580  Biso   1.000  C
  C723     1.0000 0.02970  0.39287  0.28520  Biso   1.000  C
  H279     1.0000 0.04330  0.39670  0.24960  Biso   1.000  H
  C724     1.0000 0.86600  0.43276  0.19670  Biso   1.000  C
  C725     1.0000 0.00880  0.44380  0.92890  Biso   1.000  C
  C726     1.0000 0.01900  0.35237  0.96750  Biso   1.000  C
  C727     1.0000 0.96610  0.37579  0.44710  Biso   1.000  C
  C728     1.0000 0.09540  0.38346  0.33350  Biso   1.000  C
  C729     1.0000 0.20610  0.47628  0.60210  Biso   1.000  C
  C730     1.0000 0.17610  0.49115  0.62380  Biso   1.000  C
  H280     1.0000 0.17230  0.49260  0.66540  Biso   1.000  H
  C731     1.0000 0.15140  0.50399  0.58430  Biso   1.000  C
  C732     1.0000 0.15700  0.50124  0.52270  Biso   1.000  C
  H281     1.0000 0.14080  0.51000  0.49590  Biso   1.000  H
  C733     1.0000 0.18650  0.48570  0.50000  Biso   1.000  C
  C734     1.0000 0.21140  0.47288  0.53950  Biso   1.000  C
  H282     1.0000 0.23110  0.46230  0.52480  Biso   1.000  H
  C735     1.0000 0.11940  0.52078  0.61000  Biso   1.000  C
  C736     1.0000 0.09730  0.51348  0.65940  Biso   1.000  C
  H283     1.0000 0.10190  0.49790  0.67650  Biso   1.000  H
  C737     1.0000 0.06850  0.52852  0.68430  Biso   1.000  C
  C738     1.0000 0.06190  0.55203  0.65900  Biso   1.000  C
  H284     1.0000 0.04280  0.56260  0.67540  Biso   1.000  H
  C739     1.0000 0.08400  0.55932  0.60950  Biso   1.000  C
  C740     1.0000 0.11200  0.54355  0.58460  Biso   1.000  C
  H285     1.0000 0.12610  0.54850  0.55020  Biso   1.000  H
  C741     1.0000 0.18990  0.48071  0.43310  Biso   1.000  C
  C742     1.0000 0.19300  0.50074  0.39170  Biso   1.000  C
  H286     1.0000 0.19360  0.51700  0.40590  Biso   1.000  H
  C743     1.0000 0.19510  0.49615  0.33080  Biso   1.000  C
  C744     1.0000 0.19290  0.47241  0.30910  Biso   1.000  C
  H287     1.0000 0.19260  0.46960  0.26750  Biso   1.000  H
  C745     1.0000 0.19110  0.45216  0.34900  Biso   1.000  C
  C746     1.0000 0.19040  0.45677  0.41110  Biso   1.000  C
  H288     1.0000 0.19020  0.44350  0.43810  Biso   1.000  H
  C747     1.0000 0.23490  0.46422  0.64530  Biso   1.000  C
  C748     1.0000 0.04510  0.51988  0.73670  Biso   1.000  C
  C749     1.0000 0.07870  0.58481  0.58280  Biso   1.000  C
  C750     1.0000 0.19990  0.51748  0.28830  Biso   1.000  C
  C751     1.0000 0.18790  0.42670  0.32540  Biso   1.000  C
  O336     1.0000 0.97820  0.46170  0.93900  Biso   1.000  O
  C752     1.0000 0.99410  0.44200  0.92190  Biso   1.000  C
  O337     1.0000 0.75000  0.75000  0.61210  Biso   1.000  O
  O338     1.0000 0.75000  0.25000  0.11210  Biso   1.000  O
  O339     1.0000 0.25000  0.25000  0.61210  Biso   1.000  O
  O340     1.0000 0.25000  0.75000  0.11210  Biso   1.000  O
  O341     1.0000 0.00000  0.50000  0.86210  Biso   1.000  O
  O342     1.0000 0.00000  0.00000  0.36210  Biso   1.000  O
  O343     1.0000 0.50000  0.50000  0.36210  Biso   1.000  O
  O344     1.0000 0.50000  0.00000  0.86210  Biso   1.000  O
