data_image0
_cell_length_a       14.0828
_cell_length_b       23.9967
_cell_length_c       37.1516
_cell_angle_alpha    90
_cell_angle_beta     90
_cell_angle_gamma    90

_symmetry_space_group_name_H-M    "P 1"
_symmetry_int_tables_number       1

loop_
  _symmetry_equiv_pos_as_xyz
  'x, y, z'

loop_
  _atom_site_label
  _atom_site_occupancy
  _atom_site_fract_x
  _atom_site_fract_y
  _atom_site_fract_z
  _atom_site_thermal_displace_type
  _atom_site_B_iso_or_equiv
  _atom_site_type_symbol
  C1       1.0000 0.91060  0.40250  0.84373  Biso   1.000  C
  H1       1.0000 0.91220  0.40610  0.81800  Biso   1.000  H
  H2       1.0000 0.85520  0.42090  0.85300  Biso   1.000  H
  H3       1.0000 0.90850  0.36370  0.85010  Biso   1.000  H
  C2       1.0000 0.97100  0.93050  0.88060  Biso   1.000  C
  C3       1.0000 0.95840  0.89650  0.90200  Biso   1.000  C
  C4       1.0000 0.87500  0.91080  0.89210  Biso   1.000  C
  C5       1.0000 0.32920  0.25680  0.20886  Biso   1.000  C
  H4       1.0000 0.34360  0.21910  0.21090  Biso   1.000  H
  C6       1.0000 0.33480  0.34580  0.21372  Biso   1.000  C
  H5       1.0000 0.35410  0.38160  0.21990  Biso   1.000  H
  C7       1.0000 0.25710  0.33310  0.19420  Biso   1.000  C
  H6       1.0000 0.21380  0.35820  0.18450  Biso   1.000  H
  C8       1.0000 0.18470  0.24470  0.17047  Biso   1.000  C
  H7       1.0000 0.12100  0.25460  0.17810  Biso   1.000  H
  H8       1.0000 0.19370  0.20530  0.17510  Biso   1.000  H
  C9       1.0000 0.19450  0.25560  0.13022  Biso   1.000  C
  H9       1.0000 0.14680  0.23410  0.11750  Biso   1.000  H
  H10      1.0000 0.18220  0.29470  0.12560  Biso   1.000  H
  C10      1.0000 0.29060  0.24100  0.11543  Biso   1.000  C
  H11      1.0000 0.30070  0.20130  0.11850  Biso   1.000  H
  H12      1.0000 0.33840  0.26020  0.12950  Biso   1.000  H
  C11      1.0000 0.30510  0.25530  0.07597  Biso   1.000  C
  H13      1.0000 0.29470  0.29490  0.07250  Biso   1.000  H
  H14      1.0000 0.37020  0.24720  0.06930  Biso   1.000  H
  C12      1.0000 0.16190  0.24350  0.03664  Biso   1.000  C
  H15      1.0000 0.14010  0.28000  0.03850  Biso   1.000  H
  C13      1.0000 0.17490  0.15680  0.02183  Biso   1.000  C
  H16      1.0000 0.16300  0.12220  0.01150  Biso   1.000  H
  C14      1.0000 0.24930  0.16930  0.04290  Biso   1.000  C
  H17      1.0000 0.29760  0.14510  0.04970  Biso   1.000  H
  N1       1.0000 0.38090  0.29737  0.22297  Biso   1.000  N
  N2       1.0000 0.25410  0.27691  0.19144  Biso   1.000  N
  N3       1.0000 0.24100  0.22416  0.05250  Biso   1.000  N
  N4       1.0000 0.11890  0.20374  0.01803  Biso   1.000  N
  C15      1.0000 0.05800  0.47920  0.95340  Biso   1.000  C
  C16      1.0000 0.05600  0.43410  0.97550  Biso   1.000  C
  C17      1.0000 0.58940  0.59750  0.34373  Biso   1.000  C
  H18      1.0000 0.58780  0.59390  0.31800  Biso   1.000  H
  H19      1.0000 0.64480  0.57910  0.35300  Biso   1.000  H
  H20      1.0000 0.59150  0.63630  0.35010  Biso   1.000  H
  C18      1.0000 0.52900  0.06950  0.38060  Biso   1.000  C
  C19      1.0000 0.54160  0.10350  0.40200  Biso   1.000  C
  C20      1.0000 0.62500  0.08920  0.39210  Biso   1.000  C
  C21      1.0000 0.17080  0.74320  0.70886  Biso   1.000  C
  H21      1.0000 0.15640  0.78090  0.71090  Biso   1.000  H
  C22      1.0000 0.16520  0.65420  0.71372  Biso   1.000  C
  H22      1.0000 0.14590  0.61840  0.71990  Biso   1.000  H
  C23      1.0000 0.24290  0.66690  0.69420  Biso   1.000  C
  H23      1.0000 0.28620  0.64180  0.68450  Biso   1.000  H
  C24      1.0000 0.31530  0.75530  0.67047  Biso   1.000  C
  H24      1.0000 0.37900  0.74540  0.67810  Biso   1.000  H
  H25      1.0000 0.30630  0.79470  0.67510  Biso   1.000  H
  C25      1.0000 0.30550  0.74440  0.63022  Biso   1.000  C
  H26      1.0000 0.35320  0.76590  0.61750  Biso   1.000  H
  H27      1.0000 0.31780  0.70530  0.62560  Biso   1.000  H
  C26      1.0000 0.20940  0.75900  0.61543  Biso   1.000  C
  H28      1.0000 0.19930  0.79870  0.61850  Biso   1.000  H
  H29      1.0000 0.16160  0.73980  0.62950  Biso   1.000  H
  C27      1.0000 0.19490  0.74470  0.57597  Biso   1.000  C
  H30      1.0000 0.20530  0.70510  0.57250  Biso   1.000  H
  H31      1.0000 0.12980  0.75280  0.56930  Biso   1.000  H
  C28      1.0000 0.33810  0.75650  0.53664  Biso   1.000  C
  H32      1.0000 0.35990  0.72000  0.53850  Biso   1.000  H
  C29      1.0000 0.32510  0.84320  0.52183  Biso   1.000  C
  H33      1.0000 0.33700  0.87780  0.51150  Biso   1.000  H
  C30      1.0000 0.25070  0.83070  0.54290  Biso   1.000  C
  H34      1.0000 0.20240  0.85490  0.54970  Biso   1.000  H
  N5       1.0000 0.11910  0.70263  0.72297  Biso   1.000  N
  N6       1.0000 0.24590  0.72309  0.69144  Biso   1.000  N
  N7       1.0000 0.25900  0.77584  0.55250  Biso   1.000  N
  N8       1.0000 0.38110  0.79626  0.51803  Biso   1.000  N
  C31      1.0000 0.44200  0.52080  0.45340  Biso   1.000  C
  C32      1.0000 0.44400  0.56590  0.47550  Biso   1.000  C
  C33      1.0000 0.41060  0.59750  0.34373  Biso   1.000  C
  H35      1.0000 0.41220  0.59390  0.31800  Biso   1.000  H
  H36      1.0000 0.35520  0.57910  0.35300  Biso   1.000  H
  H37      1.0000 0.40850  0.63630  0.35010  Biso   1.000  H
  C34      1.0000 0.47100  0.06950  0.38060  Biso   1.000  C
  C35      1.0000 0.45840  0.10350  0.40200  Biso   1.000  C
  C36      1.0000 0.37500  0.08920  0.39210  Biso   1.000  C
  C37      1.0000 0.82920  0.74320  0.70886  Biso   1.000  C
  H38      1.0000 0.84360  0.78090  0.71090  Biso   1.000  H
  C38      1.0000 0.83480  0.65420  0.71372  Biso   1.000  C
  H39      1.0000 0.85410  0.61840  0.71990  Biso   1.000  H
  C39      1.0000 0.75710  0.66690  0.69420  Biso   1.000  C
  H40      1.0000 0.71380  0.64180  0.68450  Biso   1.000  H
  C40      1.0000 0.68470  0.75530  0.67047  Biso   1.000  C
  H41      1.0000 0.62100  0.74540  0.67810  Biso   1.000  H
  H42      1.0000 0.69370  0.79470  0.67510  Biso   1.000  H
  C41      1.0000 0.69450  0.74440  0.63022  Biso   1.000  C
  H43      1.0000 0.64680  0.76590  0.61750  Biso   1.000  H
  H44      1.0000 0.68220  0.70530  0.62560  Biso   1.000  H
  C42      1.0000 0.79060  0.75900  0.61543  Biso   1.000  C
  H45      1.0000 0.80070  0.79870  0.61850  Biso   1.000  H
  H46      1.0000 0.83840  0.73980  0.62950  Biso   1.000  H
  C43      1.0000 0.80510  0.74470  0.57597  Biso   1.000  C
  H47      1.0000 0.79470  0.70510  0.57250  Biso   1.000  H
  H48      1.0000 0.87020  0.75280  0.56930  Biso   1.000  H
  C44      1.0000 0.66190  0.75650  0.53664  Biso   1.000  C
  H49      1.0000 0.64010  0.72000  0.53850  Biso   1.000  H
  C45      1.0000 0.67490  0.84320  0.52183  Biso   1.000  C
  H50      1.0000 0.66300  0.87780  0.51150  Biso   1.000  H
  C46      1.0000 0.74930  0.83070  0.54290  Biso   1.000  C
  H51      1.0000 0.79760  0.85490  0.54970  Biso   1.000  H
  N9       1.0000 0.88090  0.70263  0.72297  Biso   1.000  N
  N10      1.0000 0.75410  0.72309  0.69144  Biso   1.000  N
  N11      1.0000 0.74100  0.77584  0.55250  Biso   1.000  N
  N12      1.0000 0.61890  0.79626  0.51803  Biso   1.000  N
  C47      1.0000 0.55800  0.52080  0.45340  Biso   1.000  C
  C48      1.0000 0.55600  0.56590  0.47550  Biso   1.000  C
  C49      1.0000 0.08940  0.40250  0.84373  Biso   1.000  C
  H52      1.0000 0.08780  0.40610  0.81800  Biso   1.000  H
  H53      1.0000 0.14480  0.42090  0.85300  Biso   1.000  H
  H54      1.0000 0.09150  0.36370  0.85010  Biso   1.000  H
  C50      1.0000 0.02900  0.93050  0.88060  Biso   1.000  C
  C51      1.0000 0.04160  0.89650  0.90200  Biso   1.000  C
  C52      1.0000 0.12500  0.91080  0.89210  Biso   1.000  C
  C53      1.0000 0.67080  0.25680  0.20886  Biso   1.000  C
  H55      1.0000 0.65640  0.21910  0.21090  Biso   1.000  H
  C54      1.0000 0.66520  0.34580  0.21372  Biso   1.000  C
  H56      1.0000 0.64590  0.38160  0.21990  Biso   1.000  H
  C55      1.0000 0.74290  0.33310  0.19420  Biso   1.000  C
  H57      1.0000 0.78620  0.35820  0.18450  Biso   1.000  H
  C56      1.0000 0.81530  0.24470  0.17047  Biso   1.000  C
  H58      1.0000 0.87900  0.25460  0.17810  Biso   1.000  H
  H59      1.0000 0.80630  0.20530  0.17510  Biso   1.000  H
  C57      1.0000 0.80550  0.25560  0.13022  Biso   1.000  C
  H60      1.0000 0.85320  0.23410  0.11750  Biso   1.000  H
  H61      1.0000 0.81780  0.29470  0.12560  Biso   1.000  H
  C58      1.0000 0.70940  0.24100  0.11543  Biso   1.000  C
  H62      1.0000 0.69930  0.20130  0.11850  Biso   1.000  H
  H63      1.0000 0.66160  0.26020  0.12950  Biso   1.000  H
  C59      1.0000 0.69490  0.25530  0.07597  Biso   1.000  C
  H64      1.0000 0.70530  0.29490  0.07250  Biso   1.000  H
  H65      1.0000 0.62980  0.24720  0.06930  Biso   1.000  H
  C60      1.0000 0.83810  0.24350  0.03664  Biso   1.000  C
  H66      1.0000 0.85990  0.28000  0.03850  Biso   1.000  H
  C61      1.0000 0.82510  0.15680  0.02183  Biso   1.000  C
  H67      1.0000 0.83700  0.12220  0.01150  Biso   1.000  H
  C62      1.0000 0.75070  0.16930  0.04290  Biso   1.000  C
  H68      1.0000 0.70240  0.14510  0.04970  Biso   1.000  H
  N13      1.0000 0.61910  0.29737  0.22297  Biso   1.000  N
  N14      1.0000 0.74590  0.27691  0.19144  Biso   1.000  N
  N15      1.0000 0.75900  0.22416  0.05250  Biso   1.000  N
  N16      1.0000 0.88110  0.20374  0.01803  Biso   1.000  N
  C63      1.0000 0.94200  0.47920  0.95340  Biso   1.000  C
  C64      1.0000 0.94400  0.43410  0.97550  Biso   1.000  C
  C65      1.0000 0.00000  0.52370  0.82428  Biso   1.000  C
  H69      1.0000 0.00000  0.50580  0.80210  Biso   1.000  H
  C66      1.0000 0.00000  0.58180  0.82567  Biso   1.000  C
  C67      1.0000 0.00000  0.60770  0.85965  Biso   1.000  C
  H70      1.0000 0.00000  0.64640  0.86080  Biso   1.000  H
  C68      1.0000 0.00000  0.57780  0.89100  Biso   1.000  C
  H71      1.0000 0.00000  0.59570  0.91320  Biso   1.000  H
  C69      1.0000 0.00000  0.48360  0.95460  Biso   1.000  C
  C70      1.0000 0.00000  0.43380  0.97460  Biso   1.000  C
  C71      1.0000 0.00000  0.38100  0.95930  Biso   1.000  C
  C72      1.0000 0.00000  0.37670  0.92169  Biso   1.000  C
  H72      1.0000 0.00000  0.34180  0.91080  Biso   1.000  H
  C73      1.0000 0.00000  0.42920  0.85994  Biso   1.000  C
  C74      1.0000 0.00000  0.49270  0.85528  Biso   1.000  C
  C75      1.0000 0.00000  0.51960  0.88880  Biso   1.000  C
  C76      1.0000 0.00000  0.47660  0.91690  Biso   1.000  C
  C77      1.0000 0.00000  0.42420  0.90070  Biso   1.000  C
  C78      1.0000 0.00000  0.61590  0.79183  Biso   1.000  C
  C79      1.0000 0.00000  0.33070  0.98340  Biso   1.000  C
  C80      1.0000 0.00000  0.82870  0.76007  Biso   1.000  C
  C81      1.0000 0.00000  0.88020  0.78216  Biso   1.000  C
  C82      1.0000 0.00000  0.93240  0.76653  Biso   1.000  C
  H73      1.0000 0.00000  0.93490  0.74160  Biso   1.000  H
  C83      1.0000 0.00000  0.98080  0.78632  Biso   1.000  C
  H74      1.0000 0.00000  0.01540  0.77500  Biso   1.000  H
  C84      1.0000 0.00000  0.87670  0.81910  Biso   1.000  C
  H75      1.0000 0.00000  0.84190  0.83020  Biso   1.000  H
  C85      1.0000 0.00000  0.92470  0.84010  Biso   1.000  C
  C86      1.0000 0.00000  0.97680  0.82366  Biso   1.000  C
  C87      1.0000 0.00000  0.02030  0.85160  Biso   1.000  C
  C88      1.0000 0.00000  0.07780  0.84970  Biso   1.000  C
  H76      1.0000 0.00000  0.09580  0.82750  Biso   1.000  H
  C89      1.0000 0.00000  0.10810  0.88143  Biso   1.000  C
  H77      1.0000 0.00000  0.14680  0.88040  Biso   1.000  H
  C90      1.0000 0.00000  0.08240  0.91444  Biso   1.000  C
  C91      1.0000 0.00000  0.02430  0.91620  Biso   1.000  C
  H78      1.0000 0.00000  0.00650  0.93840  Biso   1.000  H
  C92      1.0000 0.00000  0.99350  0.88530  Biso   1.000  C
  C93      1.0000 0.00000  0.11580  0.94860  Biso   1.000  C
  O1       1.0000 0.00000  0.66836  0.79644  Biso   1.000  O
  O2       1.0000 0.00000  0.59260  0.76254  Biso   1.000  O
  O3       1.0000 0.00000  0.28444  0.96594  Biso   1.000  O
  O4       1.0000 0.00000  0.33520  0.01629  Biso   1.000  O
  O5       1.0000 0.00000  0.78301  0.77753  Biso   1.000  O
  O6       1.0000 0.00000  0.83190  0.72733  Biso   1.000  O
  O7       1.0000 0.00000  0.16888  0.94500  Biso   1.000  O
  O8       1.0000 0.00000  0.09260  0.97851  Biso   1.000  O
  Zn1      1.0000 0.00000  0.71230  0.75186  Biso   1.000  Zn
  Zn2      1.0000 0.00000  0.21190  0.98968  Biso   1.000  Zn
  C94      1.0000 0.50000  0.47630  0.32428  Biso   1.000  C
  H79      1.0000 0.50000  0.49420  0.30210  Biso   1.000  H
  C95      1.0000 0.50000  0.41820  0.32567  Biso   1.000  C
  C96      1.0000 0.50000  0.39230  0.35965  Biso   1.000  C
  H80      1.0000 0.50000  0.35360  0.36080  Biso   1.000  H
  C97      1.0000 0.50000  0.42220  0.39100  Biso   1.000  C
  H81      1.0000 0.50000  0.40430  0.41320  Biso   1.000  H
  C98      1.0000 0.50000  0.51640  0.45460  Biso   1.000  C
  C99      1.0000 0.50000  0.56620  0.47460  Biso   1.000  C
  C100     1.0000 0.50000  0.61900  0.45930  Biso   1.000  C
  C101     1.0000 0.50000  0.62330  0.42169  Biso   1.000  C
  H82      1.0000 0.50000  0.65820  0.41080  Biso   1.000  H
  C102     1.0000 0.50000  0.57080  0.35994  Biso   1.000  C
  C103     1.0000 0.50000  0.50730  0.35528  Biso   1.000  C
  C104     1.0000 0.50000  0.48040  0.38880  Biso   1.000  C
  C105     1.0000 0.50000  0.52340  0.41690  Biso   1.000  C
  C106     1.0000 0.50000  0.57580  0.40070  Biso   1.000  C
  C107     1.0000 0.50000  0.38410  0.29183  Biso   1.000  C
  C108     1.0000 0.50000  0.66930  0.48340  Biso   1.000  C
  C109     1.0000 0.50000  0.17130  0.26007  Biso   1.000  C
  C110     1.0000 0.50000  0.11980  0.28216  Biso   1.000  C
  C111     1.0000 0.50000  0.06760  0.26653  Biso   1.000  C
  H83      1.0000 0.50000  0.06510  0.24160  Biso   1.000  H
  C112     1.0000 0.50000  0.01920  0.28632  Biso   1.000  C
  H84      1.0000 0.50000  0.98460  0.27500  Biso   1.000  H
  C113     1.0000 0.50000  0.12330  0.31910  Biso   1.000  C
  H85      1.0000 0.50000  0.15810  0.33020  Biso   1.000  H
  C114     1.0000 0.50000  0.07530  0.34010  Biso   1.000  C
  C115     1.0000 0.50000  0.02320  0.32366  Biso   1.000  C
  C116     1.0000 0.50000  0.97970  0.35160  Biso   1.000  C
  C117     1.0000 0.50000  0.92220  0.34970  Biso   1.000  C
  H86      1.0000 0.50000  0.90420  0.32750  Biso   1.000  H
  C118     1.0000 0.50000  0.89190  0.38143  Biso   1.000  C
  H87      1.0000 0.50000  0.85320  0.38040  Biso   1.000  H
  C119     1.0000 0.50000  0.91760  0.41444  Biso   1.000  C
  C120     1.0000 0.50000  0.97570  0.41620  Biso   1.000  C
  H88      1.0000 0.50000  0.99350  0.43840  Biso   1.000  H
  C121     1.0000 0.50000  0.00650  0.38530  Biso   1.000  C
  C122     1.0000 0.50000  0.88420  0.44860  Biso   1.000  C
  O9       1.0000 0.50000  0.33164  0.29644  Biso   1.000  O
  O10      1.0000 0.50000  0.40740  0.26254  Biso   1.000  O
  O11      1.0000 0.50000  0.71556  0.46594  Biso   1.000  O
  O12      1.0000 0.50000  0.66480  0.51629  Biso   1.000  O
  O13      1.0000 0.50000  0.21699  0.27753  Biso   1.000  O
  O14      1.0000 0.50000  0.16810  0.22733  Biso   1.000  O
  O15      1.0000 0.50000  0.83112  0.44500  Biso   1.000  O
  O16      1.0000 0.50000  0.90740  0.47851  Biso   1.000  O
  Zn3      1.0000 0.50000  0.28770  0.25186  Biso   1.000  Zn
  Zn4      1.0000 0.50000  0.78810  0.48968  Biso   1.000  Zn
  C123     1.0000 0.41060  0.90250  0.84373  Biso   1.000  C
  H89      1.0000 0.41220  0.90610  0.81800  Biso   1.000  H
  H90      1.0000 0.35520  0.92090  0.85300  Biso   1.000  H
  H91      1.0000 0.40850  0.86370  0.85010  Biso   1.000  H
  C124     1.0000 0.47100  0.43050  0.88060  Biso   1.000  C
  C125     1.0000 0.45840  0.39650  0.90200  Biso   1.000  C
  C126     1.0000 0.37500  0.41080  0.89210  Biso   1.000  C
  C127     1.0000 0.82920  0.75680  0.20886  Biso   1.000  C
  H92      1.0000 0.84360  0.71910  0.21090  Biso   1.000  H
  C128     1.0000 0.83480  0.84580  0.21372  Biso   1.000  C
  H93      1.0000 0.85410  0.88160  0.21990  Biso   1.000  H
  C129     1.0000 0.75710  0.83310  0.19420  Biso   1.000  C
  H94      1.0000 0.71380  0.85820  0.18450  Biso   1.000  H
  C130     1.0000 0.68470  0.74470  0.17047  Biso   1.000  C
  H95      1.0000 0.62100  0.75460  0.17810  Biso   1.000  H
  H96      1.0000 0.69370  0.70530  0.17510  Biso   1.000  H
  C131     1.0000 0.69450  0.75560  0.13022  Biso   1.000  C
  H97      1.0000 0.64680  0.73410  0.11750  Biso   1.000  H
  H98      1.0000 0.68220  0.79470  0.12560  Biso   1.000  H
  C132     1.0000 0.79060  0.74100  0.11543  Biso   1.000  C
  H99      1.0000 0.80070  0.70130  0.11850  Biso   1.000  H
  H100     1.0000 0.83840  0.76020  0.12950  Biso   1.000  H
  C133     1.0000 0.80510  0.75530  0.07597  Biso   1.000  C
  H101     1.0000 0.79470  0.79490  0.07250  Biso   1.000  H
  H102     1.0000 0.87020  0.74720  0.06930  Biso   1.000  H
  C134     1.0000 0.66190  0.74350  0.03664  Biso   1.000  C
  H103     1.0000 0.64010  0.78000  0.03850  Biso   1.000  H
  C135     1.0000 0.67490  0.65680  0.02183  Biso   1.000  C
  H104     1.0000 0.66300  0.62220  0.01150  Biso   1.000  H
  C136     1.0000 0.74930  0.66930  0.04290  Biso   1.000  C
  H105     1.0000 0.79760  0.64510  0.04970  Biso   1.000  H
  N17      1.0000 0.88090  0.79737  0.22297  Biso   1.000  N
  N18      1.0000 0.75410  0.77691  0.19144  Biso   1.000  N
  N19      1.0000 0.74100  0.72416  0.05250  Biso   1.000  N
  N20      1.0000 0.61890  0.70374  0.01803  Biso   1.000  N
  C137     1.0000 0.55800  0.97920  0.95340  Biso   1.000  C
  C138     1.0000 0.55600  0.93410  0.97550  Biso   1.000  C
  C139     1.0000 0.08940  0.09750  0.34373  Biso   1.000  C
  H106     1.0000 0.08780  0.09390  0.31800  Biso   1.000  H
  H107     1.0000 0.14480  0.07910  0.35300  Biso   1.000  H
  H108     1.0000 0.09150  0.13630  0.35010  Biso   1.000  H
  C140     1.0000 0.02900  0.56950  0.38060  Biso   1.000  C
  C141     1.0000 0.04160  0.60350  0.40200  Biso   1.000  C
  C142     1.0000 0.12500  0.58920  0.39210  Biso   1.000  C
  C143     1.0000 0.67080  0.24320  0.70886  Biso   1.000  C
  H109     1.0000 0.65640  0.28090  0.71090  Biso   1.000  H
  C144     1.0000 0.66520  0.15420  0.71372  Biso   1.000  C
  H110     1.0000 0.64590  0.11840  0.71990  Biso   1.000  H
  C145     1.0000 0.74290  0.16690  0.69420  Biso   1.000  C
  H111     1.0000 0.78620  0.14180  0.68450  Biso   1.000  H
  C146     1.0000 0.81530  0.25530  0.67047  Biso   1.000  C
  H112     1.0000 0.87900  0.24540  0.67810  Biso   1.000  H
  H113     1.0000 0.80630  0.29470  0.67510  Biso   1.000  H
  C147     1.0000 0.80550  0.24440  0.63022  Biso   1.000  C
  H114     1.0000 0.85320  0.26590  0.61750  Biso   1.000  H
  H115     1.0000 0.81780  0.20530  0.62560  Biso   1.000  H
  C148     1.0000 0.70940  0.25900  0.61543  Biso   1.000  C
  H116     1.0000 0.69930  0.29870  0.61850  Biso   1.000  H
  H117     1.0000 0.66160  0.23980  0.62950  Biso   1.000  H
  C149     1.0000 0.69490  0.24470  0.57597  Biso   1.000  C
  H118     1.0000 0.70530  0.20510  0.57250  Biso   1.000  H
  H119     1.0000 0.62980  0.25280  0.56930  Biso   1.000  H
  C150     1.0000 0.83810  0.25650  0.53664  Biso   1.000  C
  H120     1.0000 0.85990  0.22000  0.53850  Biso   1.000  H
  C151     1.0000 0.82510  0.34320  0.52183  Biso   1.000  C
  H121     1.0000 0.83700  0.37780  0.51150  Biso   1.000  H
  C152     1.0000 0.75070  0.33070  0.54290  Biso   1.000  C
  H122     1.0000 0.70240  0.35490  0.54970  Biso   1.000  H
  N21      1.0000 0.61910  0.20263  0.72297  Biso   1.000  N
  N22      1.0000 0.74590  0.22309  0.69144  Biso   1.000  N
  N23      1.0000 0.75900  0.27584  0.55250  Biso   1.000  N
  N24      1.0000 0.88110  0.29626  0.51803  Biso   1.000  N
  C153     1.0000 0.94200  0.02080  0.45340  Biso   1.000  C
  C154     1.0000 0.94400  0.06590  0.47550  Biso   1.000  C
  C155     1.0000 0.91060  0.09750  0.34373  Biso   1.000  C
  H123     1.0000 0.91220  0.09390  0.31800  Biso   1.000  H
  H124     1.0000 0.85520  0.07910  0.35300  Biso   1.000  H
  H125     1.0000 0.90850  0.13630  0.35010  Biso   1.000  H
  C156     1.0000 0.97100  0.56950  0.38060  Biso   1.000  C
  C157     1.0000 0.95840  0.60350  0.40200  Biso   1.000  C
  C158     1.0000 0.87500  0.58920  0.39210  Biso   1.000  C
  C159     1.0000 0.32920  0.24320  0.70886  Biso   1.000  C
  H126     1.0000 0.34360  0.28090  0.71090  Biso   1.000  H
  C160     1.0000 0.33480  0.15420  0.71372  Biso   1.000  C
  H127     1.0000 0.35410  0.11840  0.71990  Biso   1.000  H
  C161     1.0000 0.25710  0.16690  0.69420  Biso   1.000  C
  H128     1.0000 0.21380  0.14180  0.68450  Biso   1.000  H
  C162     1.0000 0.18470  0.25530  0.67047  Biso   1.000  C
  H129     1.0000 0.12100  0.24540  0.67810  Biso   1.000  H
  H130     1.0000 0.19370  0.29470  0.67510  Biso   1.000  H
  C163     1.0000 0.19450  0.24440  0.63022  Biso   1.000  C
  H131     1.0000 0.14680  0.26590  0.61750  Biso   1.000  H
  H132     1.0000 0.18220  0.20530  0.62560  Biso   1.000  H
  C164     1.0000 0.29060  0.25900  0.61543  Biso   1.000  C
  H133     1.0000 0.30070  0.29870  0.61850  Biso   1.000  H
  H134     1.0000 0.33840  0.23980  0.62950  Biso   1.000  H
  C165     1.0000 0.30510  0.24470  0.57597  Biso   1.000  C
  H135     1.0000 0.29470  0.20510  0.57250  Biso   1.000  H
  H136     1.0000 0.37020  0.25280  0.56930  Biso   1.000  H
  C166     1.0000 0.16190  0.25650  0.53664  Biso   1.000  C
  H137     1.0000 0.14010  0.22000  0.53850  Biso   1.000  H
  C167     1.0000 0.17490  0.34320  0.52183  Biso   1.000  C
  H138     1.0000 0.16300  0.37780  0.51150  Biso   1.000  H
  C168     1.0000 0.24930  0.33070  0.54290  Biso   1.000  C
  H139     1.0000 0.29760  0.35490  0.54970  Biso   1.000  H
  N25      1.0000 0.38090  0.20263  0.72297  Biso   1.000  N
  N26      1.0000 0.25410  0.22309  0.69144  Biso   1.000  N
  N27      1.0000 0.24100  0.27584  0.55250  Biso   1.000  N
  N28      1.0000 0.11890  0.29626  0.51803  Biso   1.000  N
  C169     1.0000 0.05800  0.02080  0.45340  Biso   1.000  C
  C170     1.0000 0.05600  0.06590  0.47550  Biso   1.000  C
  C171     1.0000 0.58940  0.90250  0.84373  Biso   1.000  C
  H140     1.0000 0.58780  0.90610  0.81800  Biso   1.000  H
  H141     1.0000 0.64480  0.92090  0.85300  Biso   1.000  H
  H142     1.0000 0.59150  0.86370  0.85010  Biso   1.000  H
  C172     1.0000 0.52900  0.43050  0.88060  Biso   1.000  C
  C173     1.0000 0.54160  0.39650  0.90200  Biso   1.000  C
  C174     1.0000 0.62500  0.41080  0.89210  Biso   1.000  C
  C175     1.0000 0.17080  0.75680  0.20886  Biso   1.000  C
  H143     1.0000 0.15640  0.71910  0.21090  Biso   1.000  H
  C176     1.0000 0.16520  0.84580  0.21372  Biso   1.000  C
  H144     1.0000 0.14590  0.88160  0.21990  Biso   1.000  H
  C177     1.0000 0.24290  0.83310  0.19420  Biso   1.000  C
  H145     1.0000 0.28620  0.85820  0.18450  Biso   1.000  H
  C178     1.0000 0.31530  0.74470  0.17047  Biso   1.000  C
  H146     1.0000 0.37900  0.75460  0.17810  Biso   1.000  H
  H147     1.0000 0.30630  0.70530  0.17510  Biso   1.000  H
  C179     1.0000 0.30550  0.75560  0.13022  Biso   1.000  C
  H148     1.0000 0.35320  0.73410  0.11750  Biso   1.000  H
  H149     1.0000 0.31780  0.79470  0.12560  Biso   1.000  H
  C180     1.0000 0.20940  0.74100  0.11543  Biso   1.000  C
  H150     1.0000 0.19930  0.70130  0.11850  Biso   1.000  H
  H151     1.0000 0.16160  0.76020  0.12950  Biso   1.000  H
  C181     1.0000 0.19490  0.75530  0.07597  Biso   1.000  C
  H152     1.0000 0.20530  0.79490  0.07250  Biso   1.000  H
  H153     1.0000 0.12980  0.74720  0.06930  Biso   1.000  H
  C182     1.0000 0.33810  0.74350  0.03664  Biso   1.000  C
  H154     1.0000 0.35990  0.78000  0.03850  Biso   1.000  H
  C183     1.0000 0.32510  0.65680  0.02183  Biso   1.000  C
  H155     1.0000 0.33700  0.62220  0.01150  Biso   1.000  H
  C184     1.0000 0.25070  0.66930  0.04290  Biso   1.000  C
  H156     1.0000 0.20240  0.64510  0.04970  Biso   1.000  H
  N29      1.0000 0.11910  0.79737  0.22297  Biso   1.000  N
  N30      1.0000 0.24590  0.77691  0.19144  Biso   1.000  N
  N31      1.0000 0.25900  0.72416  0.05250  Biso   1.000  N
  N32      1.0000 0.38110  0.70374  0.01803  Biso   1.000  N
  C185     1.0000 0.44200  0.97920  0.95340  Biso   1.000  C
  C186     1.0000 0.44400  0.93410  0.97550  Biso   1.000  C
  C187     1.0000 0.50000  0.02370  0.82428  Biso   1.000  C
  H157     1.0000 0.50000  0.00580  0.80210  Biso   1.000  H
  C188     1.0000 0.50000  0.08180  0.82567  Biso   1.000  C
  C189     1.0000 0.50000  0.10770  0.85965  Biso   1.000  C
  H158     1.0000 0.50000  0.14640  0.86080  Biso   1.000  H
  C190     1.0000 0.50000  0.07780  0.89100  Biso   1.000  C
  H159     1.0000 0.50000  0.09570  0.91320  Biso   1.000  H
  C191     1.0000 0.50000  0.98360  0.95460  Biso   1.000  C
  C192     1.0000 0.50000  0.93380  0.97460  Biso   1.000  C
  C193     1.0000 0.50000  0.88100  0.95930  Biso   1.000  C
  C194     1.0000 0.50000  0.87670  0.92169  Biso   1.000  C
  H160     1.0000 0.50000  0.84180  0.91080  Biso   1.000  H
  C195     1.0000 0.50000  0.92920  0.85994  Biso   1.000  C
  C196     1.0000 0.50000  0.99270  0.85528  Biso   1.000  C
  C197     1.0000 0.50000  0.01960  0.88880  Biso   1.000  C
  C198     1.0000 0.50000  0.97660  0.91690  Biso   1.000  C
  C199     1.0000 0.50000  0.92420  0.90070  Biso   1.000  C
  C200     1.0000 0.50000  0.11590  0.79183  Biso   1.000  C
  C201     1.0000 0.50000  0.83070  0.98340  Biso   1.000  C
  C202     1.0000 0.50000  0.32870  0.76007  Biso   1.000  C
  C203     1.0000 0.50000  0.38020  0.78216  Biso   1.000  C
  C204     1.0000 0.50000  0.43240  0.76653  Biso   1.000  C
  H161     1.0000 0.50000  0.43490  0.74160  Biso   1.000  H
  C205     1.0000 0.50000  0.48080  0.78632  Biso   1.000  C
  H162     1.0000 0.50000  0.51540  0.77500  Biso   1.000  H
  C206     1.0000 0.50000  0.37670  0.81910  Biso   1.000  C
  H163     1.0000 0.50000  0.34190  0.83020  Biso   1.000  H
  C207     1.0000 0.50000  0.42470  0.84010  Biso   1.000  C
  C208     1.0000 0.50000  0.47680  0.82366  Biso   1.000  C
  C209     1.0000 0.50000  0.52030  0.85160  Biso   1.000  C
  C210     1.0000 0.50000  0.57780  0.84970  Biso   1.000  C
  H164     1.0000 0.50000  0.59580  0.82750  Biso   1.000  H
  C211     1.0000 0.50000  0.60810  0.88143  Biso   1.000  C
  H165     1.0000 0.50000  0.64680  0.88040  Biso   1.000  H
  C212     1.0000 0.50000  0.58240  0.91444  Biso   1.000  C
  C213     1.0000 0.50000  0.52430  0.91620  Biso   1.000  C
  H166     1.0000 0.50000  0.50650  0.93840  Biso   1.000  H
  C214     1.0000 0.50000  0.49350  0.88530  Biso   1.000  C
  C215     1.0000 0.50000  0.61580  0.94860  Biso   1.000  C
  O17      1.0000 0.50000  0.16836  0.79644  Biso   1.000  O
  O18      1.0000 0.50000  0.09260  0.76254  Biso   1.000  O
  O19      1.0000 0.50000  0.78444  0.96594  Biso   1.000  O
  O20      1.0000 0.50000  0.83520  0.01629  Biso   1.000  O
  O21      1.0000 0.50000  0.28301  0.77753  Biso   1.000  O
  O22      1.0000 0.50000  0.33190  0.72733  Biso   1.000  O
  O23      1.0000 0.50000  0.66888  0.94500  Biso   1.000  O
  O24      1.0000 0.50000  0.59260  0.97851  Biso   1.000  O
  Zn5      1.0000 0.50000  0.21230  0.75186  Biso   1.000  Zn
  Zn6      1.0000 0.50000  0.71190  0.98968  Biso   1.000  Zn
  C216     1.0000 0.00000  0.97630  0.32428  Biso   1.000  C
  H167     1.0000 0.00000  0.99420  0.30210  Biso   1.000  H
  C217     1.0000 0.00000  0.91820  0.32567  Biso   1.000  C
  C218     1.0000 0.00000  0.89230  0.35965  Biso   1.000  C
  H168     1.0000 0.00000  0.85360  0.36080  Biso   1.000  H
  C219     1.0000 0.00000  0.92220  0.39100  Biso   1.000  C
  H169     1.0000 0.00000  0.90430  0.41320  Biso   1.000  H
  C220     1.0000 0.00000  0.01640  0.45460  Biso   1.000  C
  C221     1.0000 0.00000  0.06620  0.47460  Biso   1.000  C
  C222     1.0000 0.00000  0.11900  0.45930  Biso   1.000  C
  C223     1.0000 0.00000  0.12330  0.42169  Biso   1.000  C
  H170     1.0000 0.00000  0.15820  0.41080  Biso   1.000  H
  C224     1.0000 0.00000  0.07080  0.35994  Biso   1.000  C
  C225     1.0000 0.00000  0.00730  0.35528  Biso   1.000  C
  C226     1.0000 0.00000  0.98040  0.38880  Biso   1.000  C
  C227     1.0000 0.00000  0.02340  0.41690  Biso   1.000  C
  C228     1.0000 0.00000  0.07580  0.40070  Biso   1.000  C
  C229     1.0000 0.00000  0.88410  0.29183  Biso   1.000  C
  C230     1.0000 0.00000  0.16930  0.48340  Biso   1.000  C
  C231     1.0000 0.00000  0.67130  0.26007  Biso   1.000  C
  C232     1.0000 0.00000  0.61980  0.28216  Biso   1.000  C
  C233     1.0000 0.00000  0.56760  0.26653  Biso   1.000  C
  H171     1.0000 0.00000  0.56510  0.24160  Biso   1.000  H
  C234     1.0000 0.00000  0.51920  0.28632  Biso   1.000  C
  H172     1.0000 0.00000  0.48460  0.27500  Biso   1.000  H
  C235     1.0000 0.00000  0.62330  0.31910  Biso   1.000  C
  H173     1.0000 0.00000  0.65810  0.33020  Biso   1.000  H
  C236     1.0000 0.00000  0.57530  0.34010  Biso   1.000  C
  C237     1.0000 0.00000  0.52320  0.32366  Biso   1.000  C
  C238     1.0000 0.00000  0.47970  0.35160  Biso   1.000  C
  C239     1.0000 0.00000  0.42220  0.34970  Biso   1.000  C
  H174     1.0000 0.00000  0.40420  0.32750  Biso   1.000  H
  C240     1.0000 0.00000  0.39190  0.38143  Biso   1.000  C
  H175     1.0000 0.00000  0.35320  0.38040  Biso   1.000  H
  C241     1.0000 0.00000  0.41760  0.41444  Biso   1.000  C
  C242     1.0000 0.00000  0.47570  0.41620  Biso   1.000  C
  H176     1.0000 0.00000  0.49350  0.43840  Biso   1.000  H
  C243     1.0000 0.00000  0.50650  0.38530  Biso   1.000  C
  C244     1.0000 0.00000  0.38420  0.44860  Biso   1.000  C
  O25      1.0000 0.00000  0.83164  0.29644  Biso   1.000  O
  O26      1.0000 0.00000  0.90740  0.26254  Biso   1.000  O
  O27      1.0000 0.00000  0.21556  0.46594  Biso   1.000  O
  O28      1.0000 0.00000  0.16480  0.51629  Biso   1.000  O
  O29      1.0000 0.00000  0.71699  0.27753  Biso   1.000  O
  O30      1.0000 0.00000  0.66810  0.22733  Biso   1.000  O
  O31      1.0000 0.00000  0.33112  0.44500  Biso   1.000  O
  O32      1.0000 0.00000  0.40740  0.47851  Biso   1.000  O
  Zn7      1.0000 0.00000  0.78770  0.25186  Biso   1.000  Zn
  Zn8      1.0000 0.00000  0.28810  0.48968  Biso   1.000  Zn
  C245     1.0000 0.08940  0.90250  0.65627  Biso   1.000  C
  H177     1.0000 0.08780  0.90610  0.68200  Biso   1.000  H
  H178     1.0000 0.14480  0.92090  0.64700  Biso   1.000  H
  H179     1.0000 0.09150  0.86370  0.64990  Biso   1.000  H
  C246     1.0000 0.02900  0.43050  0.61940  Biso   1.000  C
  C247     1.0000 0.04160  0.39650  0.59800  Biso   1.000  C
  C248     1.0000 0.12500  0.41080  0.60790  Biso   1.000  C
  C249     1.0000 0.67080  0.75680  0.29114  Biso   1.000  C
  H180     1.0000 0.65640  0.71910  0.28910  Biso   1.000  H
  C250     1.0000 0.66520  0.84580  0.28628  Biso   1.000  C
  H181     1.0000 0.64590  0.88160  0.28010  Biso   1.000  H
  C251     1.0000 0.74290  0.83310  0.30580  Biso   1.000  C
  H182     1.0000 0.78620  0.85820  0.31550  Biso   1.000  H
  C252     1.0000 0.81530  0.74470  0.32953  Biso   1.000  C
  H183     1.0000 0.87900  0.75460  0.32190  Biso   1.000  H
  H184     1.0000 0.80630  0.70530  0.32490  Biso   1.000  H
  C253     1.0000 0.80550  0.75560  0.36978  Biso   1.000  C
  H185     1.0000 0.85320  0.73410  0.38250  Biso   1.000  H
  H186     1.0000 0.81780  0.79470  0.37440  Biso   1.000  H
  C254     1.0000 0.70940  0.74100  0.38457  Biso   1.000  C
  H187     1.0000 0.69930  0.70130  0.38150  Biso   1.000  H
  H188     1.0000 0.66160  0.76020  0.37050  Biso   1.000  H
  C255     1.0000 0.69490  0.75530  0.42403  Biso   1.000  C
  H189     1.0000 0.70530  0.79490  0.42750  Biso   1.000  H
  H190     1.0000 0.62980  0.74720  0.43070  Biso   1.000  H
  C256     1.0000 0.83810  0.74350  0.46336  Biso   1.000  C
  H191     1.0000 0.85990  0.78000  0.46150  Biso   1.000  H
  C257     1.0000 0.82510  0.65680  0.47817  Biso   1.000  C
  H192     1.0000 0.83700  0.62220  0.48850  Biso   1.000  H
  C258     1.0000 0.75070  0.66930  0.45710  Biso   1.000  C
  H193     1.0000 0.70240  0.64510  0.45030  Biso   1.000  H
  N33      1.0000 0.61910  0.79737  0.27703  Biso   1.000  N
  N34      1.0000 0.74590  0.77691  0.30856  Biso   1.000  N
  N35      1.0000 0.75900  0.72416  0.44750  Biso   1.000  N
  N36      1.0000 0.88110  0.70374  0.48197  Biso   1.000  N
  C259     1.0000 0.94200  0.97920  0.54660  Biso   1.000  C
  C260     1.0000 0.94400  0.93410  0.52450  Biso   1.000  C
  C261     1.0000 0.41060  0.09750  0.15627  Biso   1.000  C
  H194     1.0000 0.41220  0.09390  0.18200  Biso   1.000  H
  H195     1.0000 0.35520  0.07910  0.14700  Biso   1.000  H
  H196     1.0000 0.40850  0.13630  0.14990  Biso   1.000  H
  C262     1.0000 0.47100  0.56950  0.11940  Biso   1.000  C
  C263     1.0000 0.45840  0.60350  0.09800  Biso   1.000  C
  C264     1.0000 0.37500  0.58920  0.10790  Biso   1.000  C
  C265     1.0000 0.82920  0.24320  0.79114  Biso   1.000  C
  H197     1.0000 0.84360  0.28090  0.78910  Biso   1.000  H
  C266     1.0000 0.83480  0.15420  0.78628  Biso   1.000  C
  H198     1.0000 0.85410  0.11840  0.78010  Biso   1.000  H
  C267     1.0000 0.75710  0.16690  0.80580  Biso   1.000  C
  H199     1.0000 0.71380  0.14180  0.81550  Biso   1.000  H
  C268     1.0000 0.68470  0.25530  0.82953  Biso   1.000  C
  H200     1.0000 0.62100  0.24540  0.82190  Biso   1.000  H
  H201     1.0000 0.69370  0.29470  0.82490  Biso   1.000  H
  C269     1.0000 0.69450  0.24440  0.86978  Biso   1.000  C
  H202     1.0000 0.64680  0.26590  0.88250  Biso   1.000  H
  H203     1.0000 0.68220  0.20530  0.87440  Biso   1.000  H
  C270     1.0000 0.79060  0.25900  0.88457  Biso   1.000  C
  H204     1.0000 0.80070  0.29870  0.88150  Biso   1.000  H
  H205     1.0000 0.83840  0.23980  0.87050  Biso   1.000  H
  C271     1.0000 0.80510  0.24470  0.92403  Biso   1.000  C
  H206     1.0000 0.79470  0.20510  0.92750  Biso   1.000  H
  H207     1.0000 0.87020  0.25280  0.93070  Biso   1.000  H
  C272     1.0000 0.66190  0.25650  0.96336  Biso   1.000  C
  H208     1.0000 0.64010  0.22000  0.96150  Biso   1.000  H
  C273     1.0000 0.67490  0.34320  0.97817  Biso   1.000  C
  H209     1.0000 0.66300  0.37780  0.98850  Biso   1.000  H
  C274     1.0000 0.74930  0.33070  0.95710  Biso   1.000  C
  H210     1.0000 0.79760  0.35490  0.95030  Biso   1.000  H
  N37      1.0000 0.88090  0.20263  0.77703  Biso   1.000  N
  N38      1.0000 0.75410  0.22309  0.80856  Biso   1.000  N
  N39      1.0000 0.74100  0.27584  0.94750  Biso   1.000  N
  N40      1.0000 0.61890  0.29626  0.98197  Biso   1.000  N
  C275     1.0000 0.55800  0.02080  0.04660  Biso   1.000  C
  C276     1.0000 0.55600  0.06590  0.02450  Biso   1.000  C
  C277     1.0000 0.58940  0.09750  0.15627  Biso   1.000  C
  H211     1.0000 0.58780  0.09390  0.18200  Biso   1.000  H
  H212     1.0000 0.64480  0.07910  0.14700  Biso   1.000  H
  H213     1.0000 0.59150  0.13630  0.14990  Biso   1.000  H
  C278     1.0000 0.52900  0.56950  0.11940  Biso   1.000  C
  C279     1.0000 0.54160  0.60350  0.09800  Biso   1.000  C
  C280     1.0000 0.62500  0.58920  0.10790  Biso   1.000  C
  C281     1.0000 0.17080  0.24320  0.79114  Biso   1.000  C
  H214     1.0000 0.15640  0.28090  0.78910  Biso   1.000  H
  C282     1.0000 0.16520  0.15420  0.78628  Biso   1.000  C
  H215     1.0000 0.14590  0.11840  0.78010  Biso   1.000  H
  C283     1.0000 0.24290  0.16690  0.80580  Biso   1.000  C
  H216     1.0000 0.28620  0.14180  0.81550  Biso   1.000  H
  C284     1.0000 0.31530  0.25530  0.82953  Biso   1.000  C
  H217     1.0000 0.37900  0.24540  0.82190  Biso   1.000  H
  H218     1.0000 0.30630  0.29470  0.82490  Biso   1.000  H
  C285     1.0000 0.30550  0.24440  0.86978  Biso   1.000  C
  H219     1.0000 0.35320  0.26590  0.88250  Biso   1.000  H
  H220     1.0000 0.31780  0.20530  0.87440  Biso   1.000  H
  C286     1.0000 0.20940  0.25900  0.88457  Biso   1.000  C
  H221     1.0000 0.19930  0.29870  0.88150  Biso   1.000  H
  H222     1.0000 0.16160  0.23980  0.87050  Biso   1.000  H
  C287     1.0000 0.19490  0.24470  0.92403  Biso   1.000  C
  H223     1.0000 0.20530  0.20510  0.92750  Biso   1.000  H
  H224     1.0000 0.12980  0.25280  0.93070  Biso   1.000  H
  C288     1.0000 0.33810  0.25650  0.96336  Biso   1.000  C
  H225     1.0000 0.35990  0.22000  0.96150  Biso   1.000  H
  C289     1.0000 0.32510  0.34320  0.97817  Biso   1.000  C
  H226     1.0000 0.33700  0.37780  0.98850  Biso   1.000  H
  C290     1.0000 0.25070  0.33070  0.95710  Biso   1.000  C
  H227     1.0000 0.20240  0.35490  0.95030  Biso   1.000  H
  N41      1.0000 0.11910  0.20263  0.77703  Biso   1.000  N
  N42      1.0000 0.24590  0.22309  0.80856  Biso   1.000  N
  N43      1.0000 0.25900  0.27584  0.94750  Biso   1.000  N
  N44      1.0000 0.38110  0.29626  0.98197  Biso   1.000  N
  C291     1.0000 0.44200  0.02080  0.04660  Biso   1.000  C
  C292     1.0000 0.44400  0.06590  0.02450  Biso   1.000  C
  C293     1.0000 0.91060  0.90250  0.65627  Biso   1.000  C
  H228     1.0000 0.91220  0.90610  0.68200  Biso   1.000  H
  H229     1.0000 0.85520  0.92090  0.64700  Biso   1.000  H
  H230     1.0000 0.90850  0.86370  0.64990  Biso   1.000  H
  C294     1.0000 0.97100  0.43050  0.61940  Biso   1.000  C
  C295     1.0000 0.95840  0.39650  0.59800  Biso   1.000  C
  C296     1.0000 0.87500  0.41080  0.60790  Biso   1.000  C
  C297     1.0000 0.32920  0.75680  0.29114  Biso   1.000  C
  H231     1.0000 0.34360  0.71910  0.28910  Biso   1.000  H
  C298     1.0000 0.33480  0.84580  0.28628  Biso   1.000  C
  H232     1.0000 0.35410  0.88160  0.28010  Biso   1.000  H
  C299     1.0000 0.25710  0.83310  0.30580  Biso   1.000  C
  H233     1.0000 0.21380  0.85820  0.31550  Biso   1.000  H
  C300     1.0000 0.18470  0.74470  0.32953  Biso   1.000  C
  H234     1.0000 0.12100  0.75460  0.32190  Biso   1.000  H
  H235     1.0000 0.19370  0.70530  0.32490  Biso   1.000  H
  C301     1.0000 0.19450  0.75560  0.36978  Biso   1.000  C
  H236     1.0000 0.14680  0.73410  0.38250  Biso   1.000  H
  H237     1.0000 0.18220  0.79470  0.37440  Biso   1.000  H
  C302     1.0000 0.29060  0.74100  0.38457  Biso   1.000  C
  H238     1.0000 0.30070  0.70130  0.38150  Biso   1.000  H
  H239     1.0000 0.33840  0.76020  0.37050  Biso   1.000  H
  C303     1.0000 0.30510  0.75530  0.42403  Biso   1.000  C
  H240     1.0000 0.29470  0.79490  0.42750  Biso   1.000  H
  H241     1.0000 0.37020  0.74720  0.43070  Biso   1.000  H
  C304     1.0000 0.16190  0.74350  0.46336  Biso   1.000  C
  H242     1.0000 0.14010  0.78000  0.46150  Biso   1.000  H
  C305     1.0000 0.17490  0.65680  0.47817  Biso   1.000  C
  H243     1.0000 0.16300  0.62220  0.48850  Biso   1.000  H
  C306     1.0000 0.24930  0.66930  0.45710  Biso   1.000  C
  H244     1.0000 0.29760  0.64510  0.45030  Biso   1.000  H
  N45      1.0000 0.38090  0.79737  0.27703  Biso   1.000  N
  N46      1.0000 0.25410  0.77691  0.30856  Biso   1.000  N
  N47      1.0000 0.24100  0.72416  0.44750  Biso   1.000  N
  N48      1.0000 0.11890  0.70374  0.48197  Biso   1.000  N
  C307     1.0000 0.05800  0.97920  0.54660  Biso   1.000  C
  C308     1.0000 0.05600  0.93410  0.52450  Biso   1.000  C
  C309     1.0000 0.00000  0.02370  0.67572  Biso   1.000  C
  H245     1.0000 0.00000  0.00580  0.69790  Biso   1.000  H
  C310     1.0000 0.00000  0.08180  0.67433  Biso   1.000  C
  C311     1.0000 0.00000  0.10770  0.64035  Biso   1.000  C
  H246     1.0000 0.00000  0.14640  0.63920  Biso   1.000  H
  C312     1.0000 0.00000  0.07780  0.60900  Biso   1.000  C
  H247     1.0000 0.00000  0.09570  0.58680  Biso   1.000  H
  C313     1.0000 0.00000  0.98360  0.54540  Biso   1.000  C
  C314     1.0000 0.00000  0.93380  0.52540  Biso   1.000  C
  C315     1.0000 0.00000  0.88100  0.54070  Biso   1.000  C
  C316     1.0000 0.00000  0.87670  0.57831  Biso   1.000  C
  H248     1.0000 0.00000  0.84180  0.58920  Biso   1.000  H
  C317     1.0000 0.00000  0.92920  0.64006  Biso   1.000  C
  C318     1.0000 0.00000  0.99270  0.64472  Biso   1.000  C
  C319     1.0000 0.00000  0.01960  0.61120  Biso   1.000  C
  C320     1.0000 0.00000  0.97660  0.58310  Biso   1.000  C
  C321     1.0000 0.00000  0.92420  0.59930  Biso   1.000  C
  C322     1.0000 0.00000  0.11590  0.70817  Biso   1.000  C
  C323     1.0000 0.00000  0.83070  0.51660  Biso   1.000  C
  C324     1.0000 0.00000  0.32870  0.73993  Biso   1.000  C
  C325     1.0000 0.00000  0.38020  0.71784  Biso   1.000  C
  C326     1.0000 0.00000  0.43240  0.73347  Biso   1.000  C
  H249     1.0000 0.00000  0.43490  0.75840  Biso   1.000  H
  C327     1.0000 0.00000  0.48080  0.71368  Biso   1.000  C
  H250     1.0000 0.00000  0.51540  0.72500  Biso   1.000  H
  C328     1.0000 0.00000  0.37670  0.68090  Biso   1.000  C
  H251     1.0000 0.00000  0.34190  0.66980  Biso   1.000  H
  C329     1.0000 0.00000  0.42470  0.65990  Biso   1.000  C
  C330     1.0000 0.00000  0.47680  0.67634  Biso   1.000  C
  C331     1.0000 0.00000  0.52030  0.64840  Biso   1.000  C
  C332     1.0000 0.00000  0.57780  0.65030  Biso   1.000  C
  H252     1.0000 0.00000  0.59580  0.67250  Biso   1.000  H
  C333     1.0000 0.00000  0.60810  0.61857  Biso   1.000  C
  H253     1.0000 0.00000  0.64680  0.61960  Biso   1.000  H
  C334     1.0000 0.00000  0.58240  0.58556  Biso   1.000  C
  C335     1.0000 0.00000  0.52430  0.58380  Biso   1.000  C
  H254     1.0000 0.00000  0.50650  0.56160  Biso   1.000  H
  C336     1.0000 0.00000  0.49350  0.61470  Biso   1.000  C
  C337     1.0000 0.00000  0.61580  0.55140  Biso   1.000  C
  O33      1.0000 0.00000  0.16836  0.70356  Biso   1.000  O
  O34      1.0000 0.00000  0.09260  0.73746  Biso   1.000  O
  O35      1.0000 0.00000  0.78444  0.53406  Biso   1.000  O
  O36      1.0000 0.00000  0.83520  0.48371  Biso   1.000  O
  O37      1.0000 0.00000  0.28301  0.72247  Biso   1.000  O
  O38      1.0000 0.00000  0.33190  0.77267  Biso   1.000  O
  O39      1.0000 0.00000  0.66888  0.55500  Biso   1.000  O
  O40      1.0000 0.00000  0.59260  0.52149  Biso   1.000  O
  Zn9      1.0000 0.00000  0.21230  0.74814  Biso   1.000  Zn
  Zn10     1.0000 0.00000  0.71190  0.51032  Biso   1.000  Zn
  C338     1.0000 0.50000  0.97630  0.17572  Biso   1.000  C
  H255     1.0000 0.50000  0.99420  0.19790  Biso   1.000  H
  C339     1.0000 0.50000  0.91820  0.17433  Biso   1.000  C
  C340     1.0000 0.50000  0.89230  0.14035  Biso   1.000  C
  H256     1.0000 0.50000  0.85360  0.13920  Biso   1.000  H
  C341     1.0000 0.50000  0.92220  0.10900  Biso   1.000  C
  H257     1.0000 0.50000  0.90430  0.08680  Biso   1.000  H
  C342     1.0000 0.50000  0.01640  0.04540  Biso   1.000  C
  C343     1.0000 0.50000  0.06620  0.02540  Biso   1.000  C
  C344     1.0000 0.50000  0.11900  0.04070  Biso   1.000  C
  C345     1.0000 0.50000  0.12330  0.07831  Biso   1.000  C
  H258     1.0000 0.50000  0.15820  0.08920  Biso   1.000  H
  C346     1.0000 0.50000  0.07080  0.14006  Biso   1.000  C
  C347     1.0000 0.50000  0.00730  0.14472  Biso   1.000  C
  C348     1.0000 0.50000  0.98040  0.11120  Biso   1.000  C
  C349     1.0000 0.50000  0.02340  0.08310  Biso   1.000  C
  C350     1.0000 0.50000  0.07580  0.09930  Biso   1.000  C
  C351     1.0000 0.50000  0.88410  0.20817  Biso   1.000  C
  C352     1.0000 0.50000  0.16930  0.01660  Biso   1.000  C
  C353     1.0000 0.50000  0.67130  0.23993  Biso   1.000  C
  C354     1.0000 0.50000  0.61980  0.21784  Biso   1.000  C
  C355     1.0000 0.50000  0.56760  0.23347  Biso   1.000  C
  H259     1.0000 0.50000  0.56510  0.25840  Biso   1.000  H
  C356     1.0000 0.50000  0.51920  0.21368  Biso   1.000  C
  H260     1.0000 0.50000  0.48460  0.22500  Biso   1.000  H
  C357     1.0000 0.50000  0.62330  0.18090  Biso   1.000  C
  H261     1.0000 0.50000  0.65810  0.16980  Biso   1.000  H
  C358     1.0000 0.50000  0.57530  0.15990  Biso   1.000  C
  C359     1.0000 0.50000  0.52320  0.17634  Biso   1.000  C
  C360     1.0000 0.50000  0.47970  0.14840  Biso   1.000  C
  C361     1.0000 0.50000  0.42220  0.15030  Biso   1.000  C
  H262     1.0000 0.50000  0.40420  0.17250  Biso   1.000  H
  C362     1.0000 0.50000  0.39190  0.11857  Biso   1.000  C
  H263     1.0000 0.50000  0.35320  0.11960  Biso   1.000  H
  C363     1.0000 0.50000  0.41760  0.08556  Biso   1.000  C
  C364     1.0000 0.50000  0.47570  0.08380  Biso   1.000  C
  H264     1.0000 0.50000  0.49350  0.06160  Biso   1.000  H
  C365     1.0000 0.50000  0.50650  0.11470  Biso   1.000  C
  C366     1.0000 0.50000  0.38420  0.05140  Biso   1.000  C
  O41      1.0000 0.50000  0.83164  0.20356  Biso   1.000  O
  O42      1.0000 0.50000  0.90740  0.23746  Biso   1.000  O
  O43      1.0000 0.50000  0.21556  0.03406  Biso   1.000  O
  O44      1.0000 0.50000  0.16480  0.98371  Biso   1.000  O
  O45      1.0000 0.50000  0.71699  0.22247  Biso   1.000  O
  O46      1.0000 0.50000  0.66810  0.27267  Biso   1.000  O
  O47      1.0000 0.50000  0.33112  0.05500  Biso   1.000  O
  O48      1.0000 0.50000  0.40740  0.02149  Biso   1.000  O
  Zn11     1.0000 0.50000  0.78770  0.24814  Biso   1.000  Zn
  Zn12     1.0000 0.50000  0.28810  0.01032  Biso   1.000  Zn
  C367     1.0000 0.58940  0.40250  0.65627  Biso   1.000  C
  H265     1.0000 0.58780  0.40610  0.68200  Biso   1.000  H
  H266     1.0000 0.64480  0.42090  0.64700  Biso   1.000  H
  H267     1.0000 0.59150  0.36370  0.64990  Biso   1.000  H
  C368     1.0000 0.52900  0.93050  0.61940  Biso   1.000  C
  C369     1.0000 0.54160  0.89650  0.59800  Biso   1.000  C
  C370     1.0000 0.62500  0.91080  0.60790  Biso   1.000  C
  C371     1.0000 0.17080  0.25680  0.29114  Biso   1.000  C
  H268     1.0000 0.15640  0.21910  0.28910  Biso   1.000  H
  C372     1.0000 0.16520  0.34580  0.28628  Biso   1.000  C
  H269     1.0000 0.14590  0.38160  0.28010  Biso   1.000  H
  C373     1.0000 0.24290  0.33310  0.30580  Biso   1.000  C
  H270     1.0000 0.28620  0.35820  0.31550  Biso   1.000  H
  C374     1.0000 0.31530  0.24470  0.32953  Biso   1.000  C
  H271     1.0000 0.37900  0.25460  0.32190  Biso   1.000  H
  H272     1.0000 0.30630  0.20530  0.32490  Biso   1.000  H
  C375     1.0000 0.30550  0.25560  0.36978  Biso   1.000  C
  H273     1.0000 0.35320  0.23410  0.38250  Biso   1.000  H
  H274     1.0000 0.31780  0.29470  0.37440  Biso   1.000  H
  C376     1.0000 0.20940  0.24100  0.38457  Biso   1.000  C
  H275     1.0000 0.19930  0.20130  0.38150  Biso   1.000  H
  H276     1.0000 0.16160  0.26020  0.37050  Biso   1.000  H
  C377     1.0000 0.19490  0.25530  0.42403  Biso   1.000  C
  H277     1.0000 0.20530  0.29490  0.42750  Biso   1.000  H
  H278     1.0000 0.12980  0.24720  0.43070  Biso   1.000  H
  C378     1.0000 0.33810  0.24350  0.46336  Biso   1.000  C
  H279     1.0000 0.35990  0.28000  0.46150  Biso   1.000  H
  C379     1.0000 0.32510  0.15680  0.47817  Biso   1.000  C
  H280     1.0000 0.33700  0.12220  0.48850  Biso   1.000  H
  C380     1.0000 0.25070  0.16930  0.45710  Biso   1.000  C
  H281     1.0000 0.20240  0.14510  0.45030  Biso   1.000  H
  N49      1.0000 0.11910  0.29737  0.27703  Biso   1.000  N
  N50      1.0000 0.24590  0.27691  0.30856  Biso   1.000  N
  N51      1.0000 0.25900  0.22416  0.44750  Biso   1.000  N
  N52      1.0000 0.38110  0.20374  0.48197  Biso   1.000  N
  C381     1.0000 0.44200  0.47920  0.54660  Biso   1.000  C
  C382     1.0000 0.44400  0.43410  0.52450  Biso   1.000  C
  C383     1.0000 0.91060  0.59750  0.15627  Biso   1.000  C
  H282     1.0000 0.91220  0.59390  0.18200  Biso   1.000  H
  H283     1.0000 0.85520  0.57910  0.14700  Biso   1.000  H
  H284     1.0000 0.90850  0.63630  0.14990  Biso   1.000  H
  C384     1.0000 0.97100  0.06950  0.11940  Biso   1.000  C
  C385     1.0000 0.95840  0.10350  0.09800  Biso   1.000  C
  C386     1.0000 0.87500  0.08920  0.10790  Biso   1.000  C
  C387     1.0000 0.32920  0.74320  0.79114  Biso   1.000  C
  H285     1.0000 0.34360  0.78090  0.78910  Biso   1.000  H
  C388     1.0000 0.33480  0.65420  0.78628  Biso   1.000  C
  H286     1.0000 0.35410  0.61840  0.78010  Biso   1.000  H
  C389     1.0000 0.25710  0.66690  0.80580  Biso   1.000  C
  H287     1.0000 0.21380  0.64180  0.81550  Biso   1.000  H
  C390     1.0000 0.18470  0.75530  0.82953  Biso   1.000  C
  H288     1.0000 0.12100  0.74540  0.82190  Biso   1.000  H
  H289     1.0000 0.19370  0.79470  0.82490  Biso   1.000  H
  C391     1.0000 0.19450  0.74440  0.86978  Biso   1.000  C
  H290     1.0000 0.14680  0.76590  0.88250  Biso   1.000  H
  H291     1.0000 0.18220  0.70530  0.87440  Biso   1.000  H
  C392     1.0000 0.29060  0.75900  0.88457  Biso   1.000  C
  H292     1.0000 0.30070  0.79870  0.88150  Biso   1.000  H
  H293     1.0000 0.33840  0.73980  0.87050  Biso   1.000  H
  C393     1.0000 0.30510  0.74470  0.92403  Biso   1.000  C
  H294     1.0000 0.29470  0.70510  0.92750  Biso   1.000  H
  H295     1.0000 0.37020  0.75280  0.93070  Biso   1.000  H
  C394     1.0000 0.16190  0.75650  0.96336  Biso   1.000  C
  H296     1.0000 0.14010  0.72000  0.96150  Biso   1.000  H
  C395     1.0000 0.17490  0.84320  0.97817  Biso   1.000  C
  H297     1.0000 0.16300  0.87780  0.98850  Biso   1.000  H
  C396     1.0000 0.24930  0.83070  0.95710  Biso   1.000  C
  H298     1.0000 0.29760  0.85490  0.95030  Biso   1.000  H
  N53      1.0000 0.38090  0.70263  0.77703  Biso   1.000  N
  N54      1.0000 0.25410  0.72309  0.80856  Biso   1.000  N
  N55      1.0000 0.24100  0.77584  0.94750  Biso   1.000  N
  N56      1.0000 0.11890  0.79626  0.98197  Biso   1.000  N
  C397     1.0000 0.05800  0.52080  0.04660  Biso   1.000  C
  C398     1.0000 0.05600  0.56590  0.02450  Biso   1.000  C
  C399     1.0000 0.08940  0.59750  0.15627  Biso   1.000  C
  H299     1.0000 0.08780  0.59390  0.18200  Biso   1.000  H
  H300     1.0000 0.14480  0.57910  0.14700  Biso   1.000  H
  H301     1.0000 0.09150  0.63630  0.14990  Biso   1.000  H
  C400     1.0000 0.02900  0.06950  0.11940  Biso   1.000  C
  C401     1.0000 0.04160  0.10350  0.09800  Biso   1.000  C
  C402     1.0000 0.12500  0.08920  0.10790  Biso   1.000  C
  C403     1.0000 0.67080  0.74320  0.79114  Biso   1.000  C
  H302     1.0000 0.65640  0.78090  0.78910  Biso   1.000  H
  C404     1.0000 0.66520  0.65420  0.78628  Biso   1.000  C
  H303     1.0000 0.64590  0.61840  0.78010  Biso   1.000  H
  C405     1.0000 0.74290  0.66690  0.80580  Biso   1.000  C
  H304     1.0000 0.78620  0.64180  0.81550  Biso   1.000  H
  C406     1.0000 0.81530  0.75530  0.82953  Biso   1.000  C
  H305     1.0000 0.87900  0.74540  0.82190  Biso   1.000  H
  H306     1.0000 0.80630  0.79470  0.82490  Biso   1.000  H
  C407     1.0000 0.80550  0.74440  0.86978  Biso   1.000  C
  H307     1.0000 0.85320  0.76590  0.88250  Biso   1.000  H
  H308     1.0000 0.81780  0.70530  0.87440  Biso   1.000  H
  C408     1.0000 0.70940  0.75900  0.88457  Biso   1.000  C
  H309     1.0000 0.69930  0.79870  0.88150  Biso   1.000  H
  H310     1.0000 0.66160  0.73980  0.87050  Biso   1.000  H
  C409     1.0000 0.69490  0.74470  0.92403  Biso   1.000  C
  H311     1.0000 0.70530  0.70510  0.92750  Biso   1.000  H
  H312     1.0000 0.62980  0.75280  0.93070  Biso   1.000  H
  C410     1.0000 0.83810  0.75650  0.96336  Biso   1.000  C
  H313     1.0000 0.85990  0.72000  0.96150  Biso   1.000  H
  C411     1.0000 0.82510  0.84320  0.97817  Biso   1.000  C
  H314     1.0000 0.83700  0.87780  0.98850  Biso   1.000  H
  C412     1.0000 0.75070  0.83070  0.95710  Biso   1.000  C
  H315     1.0000 0.70240  0.85490  0.95030  Biso   1.000  H
  N57      1.0000 0.61910  0.70263  0.77703  Biso   1.000  N
  N58      1.0000 0.74590  0.72309  0.80856  Biso   1.000  N
  N59      1.0000 0.75900  0.77584  0.94750  Biso   1.000  N
  N60      1.0000 0.88110  0.79626  0.98197  Biso   1.000  N
  C413     1.0000 0.94200  0.52080  0.04660  Biso   1.000  C
  C414     1.0000 0.94400  0.56590  0.02450  Biso   1.000  C
  C415     1.0000 0.41060  0.40250  0.65627  Biso   1.000  C
  H316     1.0000 0.41220  0.40610  0.68200  Biso   1.000  H
  H317     1.0000 0.35520  0.42090  0.64700  Biso   1.000  H
  H318     1.0000 0.40850  0.36370  0.64990  Biso   1.000  H
  C416     1.0000 0.47100  0.93050  0.61940  Biso   1.000  C
  C417     1.0000 0.45840  0.89650  0.59800  Biso   1.000  C
  C418     1.0000 0.37500  0.91080  0.60790  Biso   1.000  C
  C419     1.0000 0.82920  0.25680  0.29114  Biso   1.000  C
  H319     1.0000 0.84360  0.21910  0.28910  Biso   1.000  H
  C420     1.0000 0.83480  0.34580  0.28628  Biso   1.000  C
  H320     1.0000 0.85410  0.38160  0.28010  Biso   1.000  H
  C421     1.0000 0.75710  0.33310  0.30580  Biso   1.000  C
  H321     1.0000 0.71380  0.35820  0.31550  Biso   1.000  H
  C422     1.0000 0.68470  0.24470  0.32953  Biso   1.000  C
  H322     1.0000 0.62100  0.25460  0.32190  Biso   1.000  H
  H323     1.0000 0.69370  0.20530  0.32490  Biso   1.000  H
  C423     1.0000 0.69450  0.25560  0.36978  Biso   1.000  C
  H324     1.0000 0.64680  0.23410  0.38250  Biso   1.000  H
  H325     1.0000 0.68220  0.29470  0.37440  Biso   1.000  H
  C424     1.0000 0.79060  0.24100  0.38457  Biso   1.000  C
  H326     1.0000 0.80070  0.20130  0.38150  Biso   1.000  H
  H327     1.0000 0.83840  0.26020  0.37050  Biso   1.000  H
  C425     1.0000 0.80510  0.25530  0.42403  Biso   1.000  C
  H328     1.0000 0.79470  0.29490  0.42750  Biso   1.000  H
  H329     1.0000 0.87020  0.24720  0.43070  Biso   1.000  H
  C426     1.0000 0.66190  0.24350  0.46336  Biso   1.000  C
  H330     1.0000 0.64010  0.28000  0.46150  Biso   1.000  H
  C427     1.0000 0.67490  0.15680  0.47817  Biso   1.000  C
  H331     1.0000 0.66300  0.12220  0.48850  Biso   1.000  H
  C428     1.0000 0.74930  0.16930  0.45710  Biso   1.000  C
  H332     1.0000 0.79760  0.14510  0.45030  Biso   1.000  H
  N61      1.0000 0.88090  0.29737  0.27703  Biso   1.000  N
  N62      1.0000 0.75410  0.27691  0.30856  Biso   1.000  N
  N63      1.0000 0.74100  0.22416  0.44750  Biso   1.000  N
  N64      1.0000 0.61890  0.20374  0.48197  Biso   1.000  N
  C429     1.0000 0.55800  0.47920  0.54660  Biso   1.000  C
  C430     1.0000 0.55600  0.43410  0.52450  Biso   1.000  C
  C431     1.0000 0.50000  0.52370  0.67572  Biso   1.000  C
  H333     1.0000 0.50000  0.50580  0.69790  Biso   1.000  H
  C432     1.0000 0.50000  0.58180  0.67433  Biso   1.000  C
  C433     1.0000 0.50000  0.60770  0.64035  Biso   1.000  C
  H334     1.0000 0.50000  0.64640  0.63920  Biso   1.000  H
  C434     1.0000 0.50000  0.57780  0.60900  Biso   1.000  C
  H335     1.0000 0.50000  0.59570  0.58680  Biso   1.000  H
  C435     1.0000 0.50000  0.48360  0.54540  Biso   1.000  C
  C436     1.0000 0.50000  0.43380  0.52540  Biso   1.000  C
  C437     1.0000 0.50000  0.38100  0.54070  Biso   1.000  C
  C438     1.0000 0.50000  0.37670  0.57831  Biso   1.000  C
  H336     1.0000 0.50000  0.34180  0.58920  Biso   1.000  H
  C439     1.0000 0.50000  0.42920  0.64006  Biso   1.000  C
  C440     1.0000 0.50000  0.49270  0.64472  Biso   1.000  C
  C441     1.0000 0.50000  0.51960  0.61120  Biso   1.000  C
  C442     1.0000 0.50000  0.47660  0.58310  Biso   1.000  C
  C443     1.0000 0.50000  0.42420  0.59930  Biso   1.000  C
  C444     1.0000 0.50000  0.61590  0.70817  Biso   1.000  C
  C445     1.0000 0.50000  0.33070  0.51660  Biso   1.000  C
  C446     1.0000 0.50000  0.82870  0.73993  Biso   1.000  C
  C447     1.0000 0.50000  0.88020  0.71784  Biso   1.000  C
  C448     1.0000 0.50000  0.93240  0.73347  Biso   1.000  C
  H337     1.0000 0.50000  0.93490  0.75840  Biso   1.000  H
  C449     1.0000 0.50000  0.98080  0.71368  Biso   1.000  C
  H338     1.0000 0.50000  0.01540  0.72500  Biso   1.000  H
  C450     1.0000 0.50000  0.87670  0.68090  Biso   1.000  C
  H339     1.0000 0.50000  0.84190  0.66980  Biso   1.000  H
  C451     1.0000 0.50000  0.92470  0.65990  Biso   1.000  C
  C452     1.0000 0.50000  0.97680  0.67634  Biso   1.000  C
  C453     1.0000 0.50000  0.02030  0.64840  Biso   1.000  C
  C454     1.0000 0.50000  0.07780  0.65030  Biso   1.000  C
  H340     1.0000 0.50000  0.09580  0.67250  Biso   1.000  H
  C455     1.0000 0.50000  0.10810  0.61857  Biso   1.000  C
  H341     1.0000 0.50000  0.14680  0.61960  Biso   1.000  H
  C456     1.0000 0.50000  0.08240  0.58556  Biso   1.000  C
  C457     1.0000 0.50000  0.02430  0.58380  Biso   1.000  C
  H342     1.0000 0.50000  0.00650  0.56160  Biso   1.000  H
  C458     1.0000 0.50000  0.99350  0.61470  Biso   1.000  C
  C459     1.0000 0.50000  0.11580  0.55140  Biso   1.000  C
  O49      1.0000 0.50000  0.66836  0.70356  Biso   1.000  O
  O50      1.0000 0.50000  0.59260  0.73746  Biso   1.000  O
  O51      1.0000 0.50000  0.28444  0.53406  Biso   1.000  O
  O52      1.0000 0.50000  0.33520  0.48371  Biso   1.000  O
  O53      1.0000 0.50000  0.78301  0.72247  Biso   1.000  O
  O54      1.0000 0.50000  0.83190  0.77267  Biso   1.000  O
  O55      1.0000 0.50000  0.16888  0.55500  Biso   1.000  O
  O56      1.0000 0.50000  0.09260  0.52149  Biso   1.000  O
  Zn13     1.0000 0.50000  0.71230  0.74814  Biso   1.000  Zn
  Zn14     1.0000 0.50000  0.21190  0.51032  Biso   1.000  Zn
  C460     1.0000 0.00000  0.47630  0.17572  Biso   1.000  C
  H343     1.0000 0.00000  0.49420  0.19790  Biso   1.000  H
  C461     1.0000 0.00000  0.41820  0.17433  Biso   1.000  C
  C462     1.0000 0.00000  0.39230  0.14035  Biso   1.000  C
  H344     1.0000 0.00000  0.35360  0.13920  Biso   1.000  H
  C463     1.0000 0.00000  0.42220  0.10900  Biso   1.000  C
  H345     1.0000 0.00000  0.40430  0.08680  Biso   1.000  H
  C464     1.0000 0.00000  0.51640  0.04540  Biso   1.000  C
  C465     1.0000 0.00000  0.56620  0.02540  Biso   1.000  C
  C466     1.0000 0.00000  0.61900  0.04070  Biso   1.000  C
  C467     1.0000 0.00000  0.62330  0.07831  Biso   1.000  C
  H346     1.0000 0.00000  0.65820  0.08920  Biso   1.000  H
  C468     1.0000 0.00000  0.57080  0.14006  Biso   1.000  C
  C469     1.0000 0.00000  0.50730  0.14472  Biso   1.000  C
  C470     1.0000 0.00000  0.48040  0.11120  Biso   1.000  C
  C471     1.0000 0.00000  0.52340  0.08310  Biso   1.000  C
  C472     1.0000 0.00000  0.57580  0.09930  Biso   1.000  C
  C473     1.0000 0.00000  0.38410  0.20817  Biso   1.000  C
  C474     1.0000 0.00000  0.66930  0.01660  Biso   1.000  C
  C475     1.0000 0.00000  0.17130  0.23993  Biso   1.000  C
  C476     1.0000 0.00000  0.11980  0.21784  Biso   1.000  C
  C477     1.0000 0.00000  0.06760  0.23347  Biso   1.000  C
  H347     1.0000 0.00000  0.06510  0.25840  Biso   1.000  H
  C478     1.0000 0.00000  0.01920  0.21368  Biso   1.000  C
  H348     1.0000 0.00000  0.98460  0.22500  Biso   1.000  H
  C479     1.0000 0.00000  0.12330  0.18090  Biso   1.000  C
  H349     1.0000 0.00000  0.15810  0.16980  Biso   1.000  H
  C480     1.0000 0.00000  0.07530  0.15990  Biso   1.000  C
  C481     1.0000 0.00000  0.02320  0.17634  Biso   1.000  C
  C482     1.0000 0.00000  0.97970  0.14840  Biso   1.000  C
  C483     1.0000 0.00000  0.92220  0.15030  Biso   1.000  C
  H350     1.0000 0.00000  0.90420  0.17250  Biso   1.000  H
  C484     1.0000 0.00000  0.89190  0.11857  Biso   1.000  C
  H351     1.0000 0.00000  0.85320  0.11960  Biso   1.000  H
  C485     1.0000 0.00000  0.91760  0.08556  Biso   1.000  C
  C486     1.0000 0.00000  0.97570  0.08380  Biso   1.000  C
  H352     1.0000 0.00000  0.99350  0.06160  Biso   1.000  H
  C487     1.0000 0.00000  0.00650  0.11470  Biso   1.000  C
  C488     1.0000 0.00000  0.88420  0.05140  Biso   1.000  C
  O57      1.0000 0.00000  0.33164  0.20356  Biso   1.000  O
  O58      1.0000 0.00000  0.40740  0.23746  Biso   1.000  O
  O59      1.0000 0.00000  0.71556  0.03406  Biso   1.000  O
  O60      1.0000 0.00000  0.66480  0.98371  Biso   1.000  O
  O61      1.0000 0.00000  0.21699  0.22247  Biso   1.000  O
  O62      1.0000 0.00000  0.16810  0.27267  Biso   1.000  O
  O63      1.0000 0.00000  0.83112  0.05500  Biso   1.000  O
  O64      1.0000 0.00000  0.90740  0.02149  Biso   1.000  O
  Zn15     1.0000 0.00000  0.28770  0.24814  Biso   1.000  Zn
  Zn16     1.0000 0.00000  0.78810  0.01032  Biso   1.000  Zn
