data_image0
_cell_length_a       24.5377
_cell_length_b       24.5377
_cell_length_c       72.0873
_cell_angle_alpha    90
_cell_angle_beta     90
_cell_angle_gamma    90

_symmetry_space_group_name_H-M    "P 1"
_symmetry_int_tables_number       1

loop_
  _symmetry_equiv_pos_as_xyz
  'x, y, z'

loop_
  _atom_site_label
  _atom_site_occupancy
  _atom_site_fract_x
  _atom_site_fract_y
  _atom_site_fract_z
  _atom_site_thermal_displace_type
  _atom_site_B_iso_or_equiv
  _atom_site_type_symbol
  O1       1.0000 0.92983  0.01080  0.11761  Biso   1.000  O
  O2       1.0000 0.99497  0.07244  0.11870  Biso   1.000  O
  O3       1.0000 0.92683  0.48595  0.09400  Biso   1.000  O
  C1       1.0000 0.95140  0.05320  0.11178  Biso   1.000  C
  C2       1.0000 0.87551  0.14043  0.06770  Biso   1.000  C
  C3       1.0000 0.85072  0.09310  0.07490  Biso   1.000  C
  H1       1.0000 0.81790  0.08080  0.07000  Biso   1.000  H
  C4       1.0000 0.87570  0.06440  0.08956  Biso   1.000  C
  H2       1.0000 0.85930  0.03320  0.09430  Biso   1.000  H
  C5       1.0000 0.92539  0.08304  0.09703  Biso   1.000  C
  C6       1.0000 0.95018  0.13037  0.08984  Biso   1.000  C
  H3       1.0000 0.98300  0.14270  0.09480  Biso   1.000  H
  C7       1.0000 0.92524  0.15907  0.07517  Biso   1.000  C
  H4       1.0000 0.94160  0.19030  0.07040  Biso   1.000  H
  Cu1      1.0000 0.04058  0.46451  0.11259  Biso   1.000  Cu
  C8       1.0000 0.82988  0.25589  0.03601  Biso   1.000  C
  C9       1.0000 0.83401  0.31312  0.03500  Biso   1.000  C
  C10      1.0000 0.80887  0.34154  0.02031  Biso   1.000  C
  H5       1.0000 0.81160  0.37930  0.01960  Biso   1.000  H
  C11      1.0000 0.77960  0.31270  0.00663  Biso   1.000  C
  C12      1.0000 0.77548  0.25550  0.00764  Biso   1.000  C
  C13      1.0000 0.80062  0.22707  0.02233  Biso   1.000  C
  C14      1.0000 0.85240  0.22750  0.05094  Biso   1.000  C
  H6       1.0000 0.87010  0.24680  0.06030  Biso   1.000  H
  C15      1.0000 0.84920  0.17160  0.05226  Biso   1.000  C
  C16      1.0000 0.82050  0.14210  0.03827  Biso   1.000  C
  H7       1.0000 0.81810  0.10430  0.03890  Biso   1.000  H
  C17      1.0000 0.79620  0.16970  0.02392  Biso   1.000  C
  H8       1.0000 0.77650  0.15040  0.01510  Biso   1.000  H
  C18      1.0000 0.86528  0.34742  0.04815  Biso   1.000  C
  C19      1.0000 0.83879  0.39126  0.05701  Biso   1.000  C
  H9       1.0000 0.80260  0.39900  0.05430  Biso   1.000  H
  C20      1.0000 0.86720  0.42339  0.07003  Biso   1.000  C
  H10      1.0000 0.84970  0.45230  0.07590  Biso   1.000  H
  C21      1.0000 0.92212  0.41168  0.07418  Biso   1.000  C
  C22      1.0000 0.94862  0.36784  0.06532  Biso   1.000  C
  H11      1.0000 0.98480  0.36010  0.06810  Biso   1.000  H
  C23      1.0000 0.92020  0.33571  0.05230  Biso   1.000  C
  H12      1.0000 0.93770  0.30680  0.04650  Biso   1.000  H
  O4       1.0000 0.99720  0.42953  0.09265  Biso   1.000  O
  C24      1.0000 0.94930  0.44530  0.08807  Biso   1.000  C
  O5       1.0000 0.75300  0.33740  0.99233  Biso   1.000  O
  C25      1.0000 0.68700  0.40060  0.98000  Biso   1.000  C
  C26      1.0000 0.73380  0.39480  0.99380  Biso   1.000  C
  C27      1.0000 0.76600  0.39590  0.99160  Biso   1.000  C
  C28      1.0000 0.73500  0.42440  0.97650  Biso   1.000  C
  O6       1.0000 0.42983  0.51080  0.61761  Biso   1.000  O
  O7       1.0000 0.49497  0.57244  0.61870  Biso   1.000  O
  O8       1.0000 0.42683  0.98595  0.59400  Biso   1.000  O
  C29      1.0000 0.45140  0.55320  0.61178  Biso   1.000  C
  C30      1.0000 0.37551  0.64043  0.56770  Biso   1.000  C
  C31      1.0000 0.35072  0.59310  0.57490  Biso   1.000  C
  H13      1.0000 0.31790  0.58080  0.57000  Biso   1.000  H
  C32      1.0000 0.37570  0.56440  0.58956  Biso   1.000  C
  H14      1.0000 0.35930  0.53320  0.59430  Biso   1.000  H
  C33      1.0000 0.42539  0.58304  0.59703  Biso   1.000  C
  C34      1.0000 0.45018  0.63037  0.58984  Biso   1.000  C
  H15      1.0000 0.48300  0.64270  0.59480  Biso   1.000  H
  C35      1.0000 0.42524  0.65907  0.57517  Biso   1.000  C
  H16      1.0000 0.44160  0.69030  0.57040  Biso   1.000  H
  Cu2      1.0000 0.54058  0.96451  0.61259  Biso   1.000  Cu
  C36      1.0000 0.32988  0.75589  0.53601  Biso   1.000  C
  C37      1.0000 0.33401  0.81312  0.53500  Biso   1.000  C
  C38      1.0000 0.30887  0.84154  0.52031  Biso   1.000  C
  H17      1.0000 0.31160  0.87930  0.51960  Biso   1.000  H
  C39      1.0000 0.27960  0.81270  0.50663  Biso   1.000  C
  C40      1.0000 0.27548  0.75550  0.50764  Biso   1.000  C
  C41      1.0000 0.30062  0.72707  0.52233  Biso   1.000  C
  C42      1.0000 0.35240  0.72750  0.55094  Biso   1.000  C
  H18      1.0000 0.37010  0.74680  0.56030  Biso   1.000  H
  C43      1.0000 0.34920  0.67160  0.55226  Biso   1.000  C
  C44      1.0000 0.32050  0.64210  0.53827  Biso   1.000  C
  H19      1.0000 0.31810  0.60430  0.53890  Biso   1.000  H
  C45      1.0000 0.29620  0.66970  0.52392  Biso   1.000  C
  H20      1.0000 0.27650  0.65040  0.51510  Biso   1.000  H
  C46      1.0000 0.36528  0.84742  0.54815  Biso   1.000  C
  C47      1.0000 0.33879  0.89126  0.55701  Biso   1.000  C
  H21      1.0000 0.30260  0.89900  0.55430  Biso   1.000  H
  C48      1.0000 0.36720  0.92339  0.57003  Biso   1.000  C
  H22      1.0000 0.34970  0.95230  0.57590  Biso   1.000  H
  C49      1.0000 0.42212  0.91168  0.57418  Biso   1.000  C
  C50      1.0000 0.44862  0.86784  0.56532  Biso   1.000  C
  H23      1.0000 0.48480  0.86010  0.56810  Biso   1.000  H
  C51      1.0000 0.42020  0.83571  0.55230  Biso   1.000  C
  H24      1.0000 0.43770  0.80680  0.54650  Biso   1.000  H
  O9       1.0000 0.49720  0.92953  0.59265  Biso   1.000  O
  C52      1.0000 0.44930  0.94530  0.58807  Biso   1.000  C
  O10      1.0000 0.25300  0.83740  0.49233  Biso   1.000  O
  C53      1.0000 0.18700  0.90060  0.48000  Biso   1.000  C
  C54      1.0000 0.23380  0.89480  0.49380  Biso   1.000  C
  C55      1.0000 0.26600  0.89590  0.49160  Biso   1.000  C
  C56      1.0000 0.23500  0.92440  0.47650  Biso   1.000  C
  O11      1.0000 0.57017  0.48920  0.61761  Biso   1.000  O
  O12      1.0000 0.50503  0.42756  0.61870  Biso   1.000  O
  O13      1.0000 0.57317  0.01405  0.59400  Biso   1.000  O
  C57      1.0000 0.54860  0.44680  0.61178  Biso   1.000  C
  C58      1.0000 0.62449  0.35957  0.56770  Biso   1.000  C
  C59      1.0000 0.64928  0.40690  0.57490  Biso   1.000  C
  H25      1.0000 0.68210  0.41920  0.57000  Biso   1.000  H
  C60      1.0000 0.62430  0.43560  0.58956  Biso   1.000  C
  H26      1.0000 0.64070  0.46680  0.59430  Biso   1.000  H
  C61      1.0000 0.57461  0.41696  0.59703  Biso   1.000  C
  C62      1.0000 0.54982  0.36963  0.58984  Biso   1.000  C
  H27      1.0000 0.51700  0.35730  0.59480  Biso   1.000  H
  C63      1.0000 0.57476  0.34093  0.57517  Biso   1.000  C
  H28      1.0000 0.55840  0.30970  0.57040  Biso   1.000  H
  Cu3      1.0000 0.45942  0.03549  0.61259  Biso   1.000  Cu
  C64      1.0000 0.67012  0.24411  0.53601  Biso   1.000  C
  C65      1.0000 0.66599  0.18688  0.53500  Biso   1.000  C
  C66      1.0000 0.69113  0.15846  0.52031  Biso   1.000  C
  H29      1.0000 0.68840  0.12070  0.51960  Biso   1.000  H
  C67      1.0000 0.72040  0.18730  0.50663  Biso   1.000  C
  C68      1.0000 0.72452  0.24450  0.50764  Biso   1.000  C
  C69      1.0000 0.69938  0.27293  0.52233  Biso   1.000  C
  C70      1.0000 0.64760  0.27250  0.55094  Biso   1.000  C
  H30      1.0000 0.62990  0.25320  0.56030  Biso   1.000  H
  C71      1.0000 0.65080  0.32840  0.55226  Biso   1.000  C
  C72      1.0000 0.67950  0.35790  0.53827  Biso   1.000  C
  H31      1.0000 0.68190  0.39570  0.53890  Biso   1.000  H
  C73      1.0000 0.70380  0.33030  0.52392  Biso   1.000  C
  H32      1.0000 0.72350  0.34960  0.51510  Biso   1.000  H
  C74      1.0000 0.63472  0.15258  0.54815  Biso   1.000  C
  C75      1.0000 0.66121  0.10874  0.55701  Biso   1.000  C
  H33      1.0000 0.69740  0.10100  0.55430  Biso   1.000  H
  C76      1.0000 0.63280  0.07661  0.57003  Biso   1.000  C
  H34      1.0000 0.65030  0.04770  0.57590  Biso   1.000  H
  C77      1.0000 0.57788  0.08832  0.57418  Biso   1.000  C
  C78      1.0000 0.55138  0.13216  0.56532  Biso   1.000  C
  H35      1.0000 0.51520  0.13990  0.56810  Biso   1.000  H
  C79      1.0000 0.57980  0.16429  0.55230  Biso   1.000  C
  H36      1.0000 0.56230  0.19320  0.54650  Biso   1.000  H
  O14      1.0000 0.50280  0.07047  0.59265  Biso   1.000  O
  C80      1.0000 0.55070  0.05470  0.58807  Biso   1.000  C
  O15      1.0000 0.74700  0.16260  0.49233  Biso   1.000  O
  C81      1.0000 0.81300  0.09940  0.48000  Biso   1.000  C
  C82      1.0000 0.76620  0.10520  0.49380  Biso   1.000  C
  C83      1.0000 0.73400  0.10410  0.49160  Biso   1.000  C
  C84      1.0000 0.76500  0.07560  0.47650  Biso   1.000  C
  O16      1.0000 0.07017  0.98920  0.11761  Biso   1.000  O
  O17      1.0000 0.00503  0.92756  0.11870  Biso   1.000  O
  O18      1.0000 0.07317  0.51405  0.09400  Biso   1.000  O
  C85      1.0000 0.04860  0.94680  0.11178  Biso   1.000  C
  C86      1.0000 0.12449  0.85957  0.06770  Biso   1.000  C
  C87      1.0000 0.14928  0.90690  0.07490  Biso   1.000  C
  H37      1.0000 0.18210  0.91920  0.07000  Biso   1.000  H
  C88      1.0000 0.12430  0.93560  0.08956  Biso   1.000  C
  H38      1.0000 0.14070  0.96680  0.09430  Biso   1.000  H
  C89      1.0000 0.07461  0.91696  0.09703  Biso   1.000  C
  C90      1.0000 0.04982  0.86963  0.08984  Biso   1.000  C
  H39      1.0000 0.01700  0.85730  0.09480  Biso   1.000  H
  C91      1.0000 0.07476  0.84093  0.07517  Biso   1.000  C
  H40      1.0000 0.05840  0.80970  0.07040  Biso   1.000  H
  Cu4      1.0000 0.95942  0.53549  0.11259  Biso   1.000  Cu
  C92      1.0000 0.17012  0.74411  0.03601  Biso   1.000  C
  C93      1.0000 0.16599  0.68688  0.03500  Biso   1.000  C
  C94      1.0000 0.19113  0.65846  0.02031  Biso   1.000  C
  H41      1.0000 0.18840  0.62070  0.01960  Biso   1.000  H
  C95      1.0000 0.22040  0.68730  0.00663  Biso   1.000  C
  C96      1.0000 0.22452  0.74450  0.00764  Biso   1.000  C
  C97      1.0000 0.19938  0.77293  0.02233  Biso   1.000  C
  C98      1.0000 0.14760  0.77250  0.05094  Biso   1.000  C
  H42      1.0000 0.12990  0.75320  0.06030  Biso   1.000  H
  C99      1.0000 0.15080  0.82840  0.05226  Biso   1.000  C
  C100     1.0000 0.17950  0.85790  0.03827  Biso   1.000  C
  H43      1.0000 0.18190  0.89570  0.03890  Biso   1.000  H
  C101     1.0000 0.20380  0.83030  0.02392  Biso   1.000  C
  H44      1.0000 0.22350  0.84960  0.01510  Biso   1.000  H
  C102     1.0000 0.13472  0.65258  0.04815  Biso   1.000  C
  C103     1.0000 0.16121  0.60874  0.05701  Biso   1.000  C
  H45      1.0000 0.19740  0.60100  0.05430  Biso   1.000  H
  C104     1.0000 0.13280  0.57661  0.07003  Biso   1.000  C
  H46      1.0000 0.15030  0.54770  0.07590  Biso   1.000  H
  C105     1.0000 0.07788  0.58832  0.07418  Biso   1.000  C
  C106     1.0000 0.05138  0.63216  0.06532  Biso   1.000  C
  H47      1.0000 0.01520  0.63990  0.06810  Biso   1.000  H
  C107     1.0000 0.07980  0.66429  0.05230  Biso   1.000  C
  H48      1.0000 0.06230  0.69320  0.04650  Biso   1.000  H
  O19      1.0000 0.00280  0.57047  0.09265  Biso   1.000  O
  C108     1.0000 0.05070  0.55470  0.08807  Biso   1.000  C
  O20      1.0000 0.24700  0.66260  0.99233  Biso   1.000  O
  C109     1.0000 0.31300  0.59940  0.98000  Biso   1.000  C
  C110     1.0000 0.26620  0.60520  0.99380  Biso   1.000  C
  C111     1.0000 0.23400  0.60410  0.99160  Biso   1.000  C
  C112     1.0000 0.26500  0.57560  0.97650  Biso   1.000  C
  O21      1.0000 0.98920  0.42983  0.36761  Biso   1.000  O
  O22      1.0000 0.92756  0.49497  0.36870  Biso   1.000  O
  O23      1.0000 0.51405  0.42683  0.34400  Biso   1.000  O
  C113     1.0000 0.94680  0.45140  0.36178  Biso   1.000  C
  C114     1.0000 0.85957  0.37551  0.31770  Biso   1.000  C
  C115     1.0000 0.90690  0.35072  0.32490  Biso   1.000  C
  H49      1.0000 0.91920  0.31790  0.32000  Biso   1.000  H
  C116     1.0000 0.93560  0.37570  0.33956  Biso   1.000  C
  H50      1.0000 0.96680  0.35930  0.34430  Biso   1.000  H
  C117     1.0000 0.91696  0.42539  0.34703  Biso   1.000  C
  C118     1.0000 0.86963  0.45018  0.33984  Biso   1.000  C
  H51      1.0000 0.85730  0.48300  0.34480  Biso   1.000  H
  C119     1.0000 0.84093  0.42524  0.32517  Biso   1.000  C
  H52      1.0000 0.80970  0.44160  0.32040  Biso   1.000  H
  Cu5      1.0000 0.53549  0.54058  0.36259  Biso   1.000  Cu
  C120     1.0000 0.74411  0.32988  0.28601  Biso   1.000  C
  C121     1.0000 0.68688  0.33401  0.28500  Biso   1.000  C
  C122     1.0000 0.65846  0.30887  0.27031  Biso   1.000  C
  H53      1.0000 0.62070  0.31160  0.26960  Biso   1.000  H
  C123     1.0000 0.68730  0.27960  0.25663  Biso   1.000  C
  C124     1.0000 0.74450  0.27548  0.25764  Biso   1.000  C
  C125     1.0000 0.77293  0.30062  0.27233  Biso   1.000  C
  C126     1.0000 0.77250  0.35240  0.30094  Biso   1.000  C
  H54      1.0000 0.75320  0.37010  0.31030  Biso   1.000  H
  C127     1.0000 0.82840  0.34920  0.30226  Biso   1.000  C
  C128     1.0000 0.85790  0.32050  0.28827  Biso   1.000  C
  H55      1.0000 0.89570  0.31810  0.28890  Biso   1.000  H
  C129     1.0000 0.83030  0.29620  0.27392  Biso   1.000  C
  H56      1.0000 0.84960  0.27650  0.26510  Biso   1.000  H
  C130     1.0000 0.65258  0.36528  0.29815  Biso   1.000  C
  C131     1.0000 0.60874  0.33879  0.30701  Biso   1.000  C
  H57      1.0000 0.60100  0.30260  0.30430  Biso   1.000  H
  C132     1.0000 0.57661  0.36720  0.32003  Biso   1.000  C
  H58      1.0000 0.54770  0.34970  0.32590  Biso   1.000  H
  C133     1.0000 0.58832  0.42212  0.32418  Biso   1.000  C
  C134     1.0000 0.63216  0.44862  0.31532  Biso   1.000  C
  H59      1.0000 0.63990  0.48480  0.31810  Biso   1.000  H
  C135     1.0000 0.66429  0.42020  0.30230  Biso   1.000  C
  H60      1.0000 0.69320  0.43770  0.29650  Biso   1.000  H
  O24      1.0000 0.57047  0.49720  0.34265  Biso   1.000  O
  C136     1.0000 0.55470  0.44930  0.33807  Biso   1.000  C
  O25      1.0000 0.66260  0.25300  0.24233  Biso   1.000  O
  C137     1.0000 0.59940  0.18700  0.23000  Biso   1.000  C
  C138     1.0000 0.60520  0.23380  0.24380  Biso   1.000  C
  C139     1.0000 0.60410  0.26600  0.24160  Biso   1.000  C
  C140     1.0000 0.57560  0.23500  0.22650  Biso   1.000  C
  O26      1.0000 0.48920  0.92983  0.86761  Biso   1.000  O
  O27      1.0000 0.42756  0.99497  0.86870  Biso   1.000  O
  O28      1.0000 0.01405  0.92683  0.84400  Biso   1.000  O
  C141     1.0000 0.44680  0.95140  0.86178  Biso   1.000  C
  C142     1.0000 0.35957  0.87551  0.81770  Biso   1.000  C
  C143     1.0000 0.40690  0.85072  0.82490  Biso   1.000  C
  H61      1.0000 0.41920  0.81790  0.82000  Biso   1.000  H
  C144     1.0000 0.43560  0.87570  0.83956  Biso   1.000  C
  H62      1.0000 0.46680  0.85930  0.84430  Biso   1.000  H
  C145     1.0000 0.41696  0.92539  0.84703  Biso   1.000  C
  C146     1.0000 0.36963  0.95018  0.83984  Biso   1.000  C
  H63      1.0000 0.35730  0.98300  0.84480  Biso   1.000  H
  C147     1.0000 0.34093  0.92524  0.82517  Biso   1.000  C
  H64      1.0000 0.30970  0.94160  0.82040  Biso   1.000  H
  Cu6      1.0000 0.03549  0.04058  0.86259  Biso   1.000  Cu
  C148     1.0000 0.24411  0.82988  0.78601  Biso   1.000  C
  C149     1.0000 0.18688  0.83401  0.78500  Biso   1.000  C
  C150     1.0000 0.15846  0.80887  0.77031  Biso   1.000  C
  H65      1.0000 0.12070  0.81160  0.76960  Biso   1.000  H
  C151     1.0000 0.18730  0.77960  0.75663  Biso   1.000  C
  C152     1.0000 0.24450  0.77548  0.75764  Biso   1.000  C
  C153     1.0000 0.27293  0.80062  0.77233  Biso   1.000  C
  C154     1.0000 0.27250  0.85240  0.80094  Biso   1.000  C
  H66      1.0000 0.25320  0.87010  0.81030  Biso   1.000  H
  C155     1.0000 0.32840  0.84920  0.80226  Biso   1.000  C
  C156     1.0000 0.35790  0.82050  0.78827  Biso   1.000  C
  H67      1.0000 0.39570  0.81810  0.78890  Biso   1.000  H
  C157     1.0000 0.33030  0.79620  0.77392  Biso   1.000  C
  H68      1.0000 0.34960  0.77650  0.76510  Biso   1.000  H
  C158     1.0000 0.15258  0.86528  0.79815  Biso   1.000  C
  C159     1.0000 0.10874  0.83879  0.80701  Biso   1.000  C
  H69      1.0000 0.10100  0.80260  0.80430  Biso   1.000  H
  C160     1.0000 0.07661  0.86720  0.82003  Biso   1.000  C
  H70      1.0000 0.04770  0.84970  0.82590  Biso   1.000  H
  C161     1.0000 0.08832  0.92212  0.82418  Biso   1.000  C
  C162     1.0000 0.13216  0.94862  0.81532  Biso   1.000  C
  H71      1.0000 0.13990  0.98480  0.81810  Biso   1.000  H
  C163     1.0000 0.16429  0.92020  0.80230  Biso   1.000  C
  H72      1.0000 0.19320  0.93770  0.79650  Biso   1.000  H
  O29      1.0000 0.07047  0.99720  0.84265  Biso   1.000  O
  C164     1.0000 0.05470  0.94930  0.83807  Biso   1.000  C
  O30      1.0000 0.16260  0.75300  0.74233  Biso   1.000  O
  C165     1.0000 0.09940  0.68700  0.73000  Biso   1.000  C
  C166     1.0000 0.10520  0.73380  0.74380  Biso   1.000  C
  C167     1.0000 0.10410  0.76600  0.74160  Biso   1.000  C
  C168     1.0000 0.07560  0.73500  0.72650  Biso   1.000  C
  O31      1.0000 0.51080  0.07017  0.86761  Biso   1.000  O
  O32      1.0000 0.57244  0.00503  0.86870  Biso   1.000  O
  O33      1.0000 0.98595  0.07317  0.84400  Biso   1.000  O
  C169     1.0000 0.55320  0.04860  0.86178  Biso   1.000  C
  C170     1.0000 0.64043  0.12449  0.81770  Biso   1.000  C
  C171     1.0000 0.59310  0.14928  0.82490  Biso   1.000  C
  H73      1.0000 0.58080  0.18210  0.82000  Biso   1.000  H
  C172     1.0000 0.56440  0.12430  0.83956  Biso   1.000  C
  H74      1.0000 0.53320  0.14070  0.84430  Biso   1.000  H
  C173     1.0000 0.58304  0.07461  0.84703  Biso   1.000  C
  C174     1.0000 0.63037  0.04982  0.83984  Biso   1.000  C
  H75      1.0000 0.64270  0.01700  0.84480  Biso   1.000  H
  C175     1.0000 0.65907  0.07476  0.82517  Biso   1.000  C
  H76      1.0000 0.69030  0.05840  0.82040  Biso   1.000  H
  Cu7      1.0000 0.96451  0.95942  0.86259  Biso   1.000  Cu
  C176     1.0000 0.75589  0.17012  0.78601  Biso   1.000  C
  C177     1.0000 0.81312  0.16599  0.78500  Biso   1.000  C
  C178     1.0000 0.84154  0.19113  0.77031  Biso   1.000  C
  H77      1.0000 0.87930  0.18840  0.76960  Biso   1.000  H
  C179     1.0000 0.81270  0.22040  0.75663  Biso   1.000  C
  C180     1.0000 0.75550  0.22452  0.75764  Biso   1.000  C
  C181     1.0000 0.72707  0.19938  0.77233  Biso   1.000  C
  C182     1.0000 0.72750  0.14760  0.80094  Biso   1.000  C
  H78      1.0000 0.74680  0.12990  0.81030  Biso   1.000  H
  C183     1.0000 0.67160  0.15080  0.80226  Biso   1.000  C
  C184     1.0000 0.64210  0.17950  0.78827  Biso   1.000  C
  H79      1.0000 0.60430  0.18190  0.78890  Biso   1.000  H
  C185     1.0000 0.66970  0.20380  0.77392  Biso   1.000  C
  H80      1.0000 0.65040  0.22350  0.76510  Biso   1.000  H
  C186     1.0000 0.84742  0.13472  0.79815  Biso   1.000  C
  C187     1.0000 0.89126  0.16121  0.80701  Biso   1.000  C
  H81      1.0000 0.89900  0.19740  0.80430  Biso   1.000  H
  C188     1.0000 0.92339  0.13280  0.82003  Biso   1.000  C
  H82      1.0000 0.95230  0.15030  0.82590  Biso   1.000  H
  C189     1.0000 0.91168  0.07788  0.82418  Biso   1.000  C
  C190     1.0000 0.86784  0.05138  0.81532  Biso   1.000  C
  H83      1.0000 0.86010  0.01520  0.81810  Biso   1.000  H
  C191     1.0000 0.83571  0.07980  0.80230  Biso   1.000  C
  H84      1.0000 0.80680  0.06230  0.79650  Biso   1.000  H
  O34      1.0000 0.92953  0.00280  0.84265  Biso   1.000  O
  C192     1.0000 0.94530  0.05070  0.83807  Biso   1.000  C
  O35      1.0000 0.83740  0.24700  0.74233  Biso   1.000  O
  C193     1.0000 0.90060  0.31300  0.73000  Biso   1.000  C
  C194     1.0000 0.89480  0.26620  0.74380  Biso   1.000  C
  C195     1.0000 0.89590  0.23400  0.74160  Biso   1.000  C
  C196     1.0000 0.92440  0.26500  0.72650  Biso   1.000  C
  O36      1.0000 0.01080  0.57017  0.36761  Biso   1.000  O
  O37      1.0000 0.07244  0.50503  0.36870  Biso   1.000  O
  O38      1.0000 0.48595  0.57317  0.34400  Biso   1.000  O
  C197     1.0000 0.05320  0.54860  0.36178  Biso   1.000  C
  C198     1.0000 0.14043  0.62449  0.31770  Biso   1.000  C
  C199     1.0000 0.09310  0.64928  0.32490  Biso   1.000  C
  H85      1.0000 0.08080  0.68210  0.32000  Biso   1.000  H
  C200     1.0000 0.06440  0.62430  0.33956  Biso   1.000  C
  H86      1.0000 0.03320  0.64070  0.34430  Biso   1.000  H
  C201     1.0000 0.08304  0.57461  0.34703  Biso   1.000  C
  C202     1.0000 0.13037  0.54982  0.33984  Biso   1.000  C
  H87      1.0000 0.14270  0.51700  0.34480  Biso   1.000  H
  C203     1.0000 0.15907  0.57476  0.32517  Biso   1.000  C
  H88      1.0000 0.19030  0.55840  0.32040  Biso   1.000  H
  Cu8      1.0000 0.46451  0.45942  0.36259  Biso   1.000  Cu
  C204     1.0000 0.25589  0.67012  0.28601  Biso   1.000  C
  C205     1.0000 0.31312  0.66599  0.28500  Biso   1.000  C
  C206     1.0000 0.34154  0.69113  0.27031  Biso   1.000  C
  H89      1.0000 0.37930  0.68840  0.26960  Biso   1.000  H
  C207     1.0000 0.31270  0.72040  0.25663  Biso   1.000  C
  C208     1.0000 0.25550  0.72452  0.25764  Biso   1.000  C
  C209     1.0000 0.22707  0.69938  0.27233  Biso   1.000  C
  C210     1.0000 0.22750  0.64760  0.30094  Biso   1.000  C
  H90      1.0000 0.24680  0.62990  0.31030  Biso   1.000  H
  C211     1.0000 0.17160  0.65080  0.30226  Biso   1.000  C
  C212     1.0000 0.14210  0.67950  0.28827  Biso   1.000  C
  H91      1.0000 0.10430  0.68190  0.28890  Biso   1.000  H
  C213     1.0000 0.16970  0.70380  0.27392  Biso   1.000  C
  H92      1.0000 0.15040  0.72350  0.26510  Biso   1.000  H
  C214     1.0000 0.34742  0.63472  0.29815  Biso   1.000  C
  C215     1.0000 0.39126  0.66121  0.30701  Biso   1.000  C
  H93      1.0000 0.39900  0.69740  0.30430  Biso   1.000  H
  C216     1.0000 0.42339  0.63280  0.32003  Biso   1.000  C
  H94      1.0000 0.45230  0.65030  0.32590  Biso   1.000  H
  C217     1.0000 0.41168  0.57788  0.32418  Biso   1.000  C
  C218     1.0000 0.36784  0.55138  0.31532  Biso   1.000  C
  H95      1.0000 0.36010  0.51520  0.31810  Biso   1.000  H
  C219     1.0000 0.33571  0.57980  0.30230  Biso   1.000  C
  H96      1.0000 0.30680  0.56230  0.29650  Biso   1.000  H
  O39      1.0000 0.42953  0.50280  0.34265  Biso   1.000  O
  C220     1.0000 0.44530  0.55070  0.33807  Biso   1.000  C
  O40      1.0000 0.33740  0.74700  0.24233  Biso   1.000  O
  C221     1.0000 0.40060  0.81300  0.23000  Biso   1.000  C
  C222     1.0000 0.39480  0.76620  0.24380  Biso   1.000  C
  C223     1.0000 0.39590  0.73400  0.24160  Biso   1.000  C
  C224     1.0000 0.42440  0.76500  0.22650  Biso   1.000  C
  O41      1.0000 0.57017  0.01080  0.63239  Biso   1.000  O
  O42      1.0000 0.50503  0.07244  0.63130  Biso   1.000  O
  O43      1.0000 0.57317  0.48595  0.65600  Biso   1.000  O
  C225     1.0000 0.54860  0.05320  0.63822  Biso   1.000  C
  C226     1.0000 0.62449  0.14043  0.68230  Biso   1.000  C
  C227     1.0000 0.64928  0.09310  0.67510  Biso   1.000  C
  H97      1.0000 0.68210  0.08080  0.68000  Biso   1.000  H
  C228     1.0000 0.62430  0.06440  0.66044  Biso   1.000  C
  H98      1.0000 0.64070  0.03320  0.65570  Biso   1.000  H
  C229     1.0000 0.57461  0.08304  0.65297  Biso   1.000  C
  C230     1.0000 0.54982  0.13037  0.66016  Biso   1.000  C
  H99      1.0000 0.51700  0.14270  0.65520  Biso   1.000  H
  C231     1.0000 0.57476  0.15907  0.67483  Biso   1.000  C
  H100     1.0000 0.55840  0.19030  0.67960  Biso   1.000  H
  Cu9      1.0000 0.45942  0.46451  0.63741  Biso   1.000  Cu
  C232     1.0000 0.67012  0.25589  0.71399  Biso   1.000  C
  C233     1.0000 0.66599  0.31312  0.71500  Biso   1.000  C
  C234     1.0000 0.69113  0.34154  0.72969  Biso   1.000  C
  H101     1.0000 0.68840  0.37930  0.73040  Biso   1.000  H
  C235     1.0000 0.72040  0.31270  0.74337  Biso   1.000  C
  C236     1.0000 0.72452  0.25550  0.74236  Biso   1.000  C
  C237     1.0000 0.69938  0.22707  0.72767  Biso   1.000  C
  C238     1.0000 0.64760  0.22750  0.69906  Biso   1.000  C
  H102     1.0000 0.62990  0.24680  0.68970  Biso   1.000  H
  C239     1.0000 0.65080  0.17160  0.69774  Biso   1.000  C
  C240     1.0000 0.67950  0.14210  0.71173  Biso   1.000  C
  H103     1.0000 0.68190  0.10430  0.71110  Biso   1.000  H
  C241     1.0000 0.70380  0.16970  0.72608  Biso   1.000  C
  H104     1.0000 0.72350  0.15040  0.73490  Biso   1.000  H
  C242     1.0000 0.63472  0.34742  0.70185  Biso   1.000  C
  C243     1.0000 0.66121  0.39126  0.69299  Biso   1.000  C
  H105     1.0000 0.69740  0.39900  0.69570  Biso   1.000  H
  C244     1.0000 0.63280  0.42339  0.67997  Biso   1.000  C
  H106     1.0000 0.65030  0.45230  0.67410  Biso   1.000  H
  C245     1.0000 0.57788  0.41168  0.67582  Biso   1.000  C
  C246     1.0000 0.55138  0.36784  0.68468  Biso   1.000  C
  H107     1.0000 0.51520  0.36010  0.68190  Biso   1.000  H
  C247     1.0000 0.57980  0.33571  0.69770  Biso   1.000  C
  H108     1.0000 0.56230  0.30680  0.70350  Biso   1.000  H
  O44      1.0000 0.50280  0.42953  0.65735  Biso   1.000  O
  C248     1.0000 0.55070  0.44530  0.66193  Biso   1.000  C
  O45      1.0000 0.74700  0.33740  0.75767  Biso   1.000  O
  C249     1.0000 0.81300  0.40060  0.77000  Biso   1.000  C
  C250     1.0000 0.76620  0.39480  0.75620  Biso   1.000  C
  C251     1.0000 0.73400  0.39590  0.75840  Biso   1.000  C
  C252     1.0000 0.76500  0.42440  0.77350  Biso   1.000  C
  O46      1.0000 0.07017  0.51080  0.13239  Biso   1.000  O
  O47      1.0000 0.00503  0.57244  0.13130  Biso   1.000  O
  O48      1.0000 0.07317  0.98595  0.15600  Biso   1.000  O
  C253     1.0000 0.04860  0.55320  0.13822  Biso   1.000  C
  C254     1.0000 0.12449  0.64043  0.18230  Biso   1.000  C
  C255     1.0000 0.14928  0.59310  0.17510  Biso   1.000  C
  H109     1.0000 0.18210  0.58080  0.18000  Biso   1.000  H
  C256     1.0000 0.12430  0.56440  0.16044  Biso   1.000  C
  H110     1.0000 0.14070  0.53320  0.15570  Biso   1.000  H
  C257     1.0000 0.07461  0.58304  0.15297  Biso   1.000  C
  C258     1.0000 0.04982  0.63037  0.16016  Biso   1.000  C
  H111     1.0000 0.01700  0.64270  0.15520  Biso   1.000  H
  C259     1.0000 0.07476  0.65907  0.17483  Biso   1.000  C
  H112     1.0000 0.05840  0.69030  0.17960  Biso   1.000  H
  Cu10     1.0000 0.95942  0.96451  0.13741  Biso   1.000  Cu
  C260     1.0000 0.17012  0.75589  0.21399  Biso   1.000  C
  C261     1.0000 0.16599  0.81312  0.21500  Biso   1.000  C
  C262     1.0000 0.19113  0.84154  0.22969  Biso   1.000  C
  H113     1.0000 0.18840  0.87930  0.23040  Biso   1.000  H
  C263     1.0000 0.22040  0.81270  0.24337  Biso   1.000  C
  C264     1.0000 0.22452  0.75550  0.24236  Biso   1.000  C
  C265     1.0000 0.19938  0.72707  0.22767  Biso   1.000  C
  C266     1.0000 0.14760  0.72750  0.19906  Biso   1.000  C
  H114     1.0000 0.12990  0.74680  0.18970  Biso   1.000  H
  C267     1.0000 0.15080  0.67160  0.19774  Biso   1.000  C
  C268     1.0000 0.17950  0.64210  0.21173  Biso   1.000  C
  H115     1.0000 0.18190  0.60430  0.21110  Biso   1.000  H
  C269     1.0000 0.20380  0.66970  0.22608  Biso   1.000  C
  H116     1.0000 0.22350  0.65040  0.23490  Biso   1.000  H
  C270     1.0000 0.13472  0.84742  0.20185  Biso   1.000  C
  C271     1.0000 0.16121  0.89126  0.19299  Biso   1.000  C
  H117     1.0000 0.19740  0.89900  0.19570  Biso   1.000  H
  C272     1.0000 0.13280  0.92339  0.17997  Biso   1.000  C
  H118     1.0000 0.15030  0.95230  0.17410  Biso   1.000  H
  C273     1.0000 0.07788  0.91168  0.17582  Biso   1.000  C
  C274     1.0000 0.05138  0.86784  0.18468  Biso   1.000  C
  H119     1.0000 0.01520  0.86010  0.18190  Biso   1.000  H
  C275     1.0000 0.07980  0.83571  0.19770  Biso   1.000  C
  H120     1.0000 0.06230  0.80680  0.20350  Biso   1.000  H
  O49      1.0000 0.00280  0.92953  0.15735  Biso   1.000  O
  C276     1.0000 0.05070  0.94530  0.16193  Biso   1.000  C
  O50      1.0000 0.24700  0.83740  0.25767  Biso   1.000  O
  C277     1.0000 0.31300  0.90060  0.27000  Biso   1.000  C
  C278     1.0000 0.26620  0.89480  0.25620  Biso   1.000  C
  C279     1.0000 0.23400  0.89590  0.25840  Biso   1.000  C
  C280     1.0000 0.26500  0.92440  0.27350  Biso   1.000  C
  O51      1.0000 0.92983  0.48920  0.13239  Biso   1.000  O
  O52      1.0000 0.99497  0.42756  0.13130  Biso   1.000  O
  O53      1.0000 0.92683  0.01405  0.15600  Biso   1.000  O
  C281     1.0000 0.95140  0.44680  0.13822  Biso   1.000  C
  C282     1.0000 0.87551  0.35957  0.18230  Biso   1.000  C
  C283     1.0000 0.85072  0.40690  0.17510  Biso   1.000  C
  H121     1.0000 0.81790  0.41920  0.18000  Biso   1.000  H
  C284     1.0000 0.87570  0.43560  0.16044  Biso   1.000  C
  H122     1.0000 0.85930  0.46680  0.15570  Biso   1.000  H
  C285     1.0000 0.92539  0.41696  0.15297  Biso   1.000  C
  C286     1.0000 0.95018  0.36963  0.16016  Biso   1.000  C
  H123     1.0000 0.98300  0.35730  0.15520  Biso   1.000  H
  C287     1.0000 0.92524  0.34093  0.17483  Biso   1.000  C
  H124     1.0000 0.94160  0.30970  0.17960  Biso   1.000  H
  Cu11     1.0000 0.04058  0.03549  0.13741  Biso   1.000  Cu
  C288     1.0000 0.82988  0.24411  0.21399  Biso   1.000  C
  C289     1.0000 0.83401  0.18688  0.21500  Biso   1.000  C
  C290     1.0000 0.80887  0.15846  0.22969  Biso   1.000  C
  H125     1.0000 0.81160  0.12070  0.23040  Biso   1.000  H
  C291     1.0000 0.77960  0.18730  0.24337  Biso   1.000  C
  C292     1.0000 0.77548  0.24450  0.24236  Biso   1.000  C
  C293     1.0000 0.80062  0.27293  0.22767  Biso   1.000  C
  C294     1.0000 0.85240  0.27250  0.19906  Biso   1.000  C
  H126     1.0000 0.87010  0.25320  0.18970  Biso   1.000  H
  C295     1.0000 0.84920  0.32840  0.19774  Biso   1.000  C
  C296     1.0000 0.82050  0.35790  0.21173  Biso   1.000  C
  H127     1.0000 0.81810  0.39570  0.21110  Biso   1.000  H
  C297     1.0000 0.79620  0.33030  0.22608  Biso   1.000  C
  H128     1.0000 0.77650  0.34960  0.23490  Biso   1.000  H
  C298     1.0000 0.86528  0.15258  0.20185  Biso   1.000  C
  C299     1.0000 0.83879  0.10874  0.19299  Biso   1.000  C
  H129     1.0000 0.80260  0.10100  0.19570  Biso   1.000  H
  C300     1.0000 0.86720  0.07661  0.17997  Biso   1.000  C
  H130     1.0000 0.84970  0.04770  0.17410  Biso   1.000  H
  C301     1.0000 0.92212  0.08832  0.17582  Biso   1.000  C
  C302     1.0000 0.94862  0.13216  0.18468  Biso   1.000  C
  H131     1.0000 0.98480  0.13990  0.18190  Biso   1.000  H
  C303     1.0000 0.92020  0.16429  0.19770  Biso   1.000  C
  H132     1.0000 0.93770  0.19320  0.20350  Biso   1.000  H
  O54      1.0000 0.99720  0.07047  0.15735  Biso   1.000  O
  C304     1.0000 0.94930  0.05470  0.16193  Biso   1.000  C
  O55      1.0000 0.75300  0.16260  0.25767  Biso   1.000  O
  C305     1.0000 0.68700  0.09940  0.27000  Biso   1.000  C
  C306     1.0000 0.73380  0.10520  0.25620  Biso   1.000  C
  C307     1.0000 0.76600  0.10410  0.25840  Biso   1.000  C
  C308     1.0000 0.73500  0.07560  0.27350  Biso   1.000  C
  O56      1.0000 0.42983  0.98920  0.63239  Biso   1.000  O
  O57      1.0000 0.49497  0.92756  0.63130  Biso   1.000  O
  O58      1.0000 0.42683  0.51405  0.65600  Biso   1.000  O
  C309     1.0000 0.45140  0.94680  0.63822  Biso   1.000  C
  C310     1.0000 0.37551  0.85957  0.68230  Biso   1.000  C
  C311     1.0000 0.35072  0.90690  0.67510  Biso   1.000  C
  H133     1.0000 0.31790  0.91920  0.68000  Biso   1.000  H
  C312     1.0000 0.37570  0.93560  0.66044  Biso   1.000  C
  H134     1.0000 0.35930  0.96680  0.65570  Biso   1.000  H
  C313     1.0000 0.42539  0.91696  0.65297  Biso   1.000  C
  C314     1.0000 0.45018  0.86963  0.66016  Biso   1.000  C
  H135     1.0000 0.48300  0.85730  0.65520  Biso   1.000  H
  C315     1.0000 0.42524  0.84093  0.67483  Biso   1.000  C
  H136     1.0000 0.44160  0.80970  0.67960  Biso   1.000  H
  Cu12     1.0000 0.54058  0.53549  0.63741  Biso   1.000  Cu
  C316     1.0000 0.32988  0.74411  0.71399  Biso   1.000  C
  C317     1.0000 0.33401  0.68688  0.71500  Biso   1.000  C
  C318     1.0000 0.30887  0.65846  0.72969  Biso   1.000  C
  H137     1.0000 0.31160  0.62070  0.73040  Biso   1.000  H
  C319     1.0000 0.27960  0.68730  0.74337  Biso   1.000  C
  C320     1.0000 0.27548  0.74450  0.74236  Biso   1.000  C
  C321     1.0000 0.30062  0.77293  0.72767  Biso   1.000  C
  C322     1.0000 0.35240  0.77250  0.69906  Biso   1.000  C
  H138     1.0000 0.37010  0.75320  0.68970  Biso   1.000  H
  C323     1.0000 0.34920  0.82840  0.69774  Biso   1.000  C
  C324     1.0000 0.32050  0.85790  0.71173  Biso   1.000  C
  H139     1.0000 0.31810  0.89570  0.71110  Biso   1.000  H
  C325     1.0000 0.29620  0.83030  0.72608  Biso   1.000  C
  H140     1.0000 0.27650  0.84960  0.73490  Biso   1.000  H
  C326     1.0000 0.36528  0.65258  0.70185  Biso   1.000  C
  C327     1.0000 0.33879  0.60874  0.69299  Biso   1.000  C
  H141     1.0000 0.30260  0.60100  0.69570  Biso   1.000  H
  C328     1.0000 0.36720  0.57661  0.67997  Biso   1.000  C
  H142     1.0000 0.34970  0.54770  0.67410  Biso   1.000  H
  C329     1.0000 0.42212  0.58832  0.67582  Biso   1.000  C
  C330     1.0000 0.44862  0.63216  0.68468  Biso   1.000  C
  H143     1.0000 0.48480  0.63990  0.68190  Biso   1.000  H
  C331     1.0000 0.42020  0.66429  0.69770  Biso   1.000  C
  H144     1.0000 0.43770  0.69320  0.70350  Biso   1.000  H
  O59      1.0000 0.49720  0.57047  0.65735  Biso   1.000  O
  C332     1.0000 0.44930  0.55470  0.66193  Biso   1.000  C
  O60      1.0000 0.25300  0.66260  0.75767  Biso   1.000  O
  C333     1.0000 0.18700  0.59940  0.77000  Biso   1.000  C
  C334     1.0000 0.23380  0.60520  0.75620  Biso   1.000  C
  C335     1.0000 0.26600  0.60410  0.75840  Biso   1.000  C
  C336     1.0000 0.23500  0.57560  0.77350  Biso   1.000  C
  O61      1.0000 0.51080  0.42983  0.38239  Biso   1.000  O
  O62      1.0000 0.57244  0.49497  0.38130  Biso   1.000  O
  O63      1.0000 0.98595  0.42683  0.40600  Biso   1.000  O
  C337     1.0000 0.55320  0.45140  0.38822  Biso   1.000  C
  C338     1.0000 0.64043  0.37551  0.43230  Biso   1.000  C
  C339     1.0000 0.59310  0.35072  0.42510  Biso   1.000  C
  H145     1.0000 0.58080  0.31790  0.43000  Biso   1.000  H
  C340     1.0000 0.56440  0.37570  0.41044  Biso   1.000  C
  H146     1.0000 0.53320  0.35930  0.40570  Biso   1.000  H
  C341     1.0000 0.58304  0.42539  0.40297  Biso   1.000  C
  C342     1.0000 0.63037  0.45018  0.41016  Biso   1.000  C
  H147     1.0000 0.64270  0.48300  0.40520  Biso   1.000  H
  C343     1.0000 0.65907  0.42524  0.42483  Biso   1.000  C
  H148     1.0000 0.69030  0.44160  0.42960  Biso   1.000  H
  Cu13     1.0000 0.96451  0.54058  0.38741  Biso   1.000  Cu
  C344     1.0000 0.75589  0.32988  0.46399  Biso   1.000  C
  C345     1.0000 0.81312  0.33401  0.46500  Biso   1.000  C
  C346     1.0000 0.84154  0.30887  0.47969  Biso   1.000  C
  H149     1.0000 0.87930  0.31160  0.48040  Biso   1.000  H
  C347     1.0000 0.81270  0.27960  0.49337  Biso   1.000  C
  C348     1.0000 0.75550  0.27548  0.49236  Biso   1.000  C
  C349     1.0000 0.72707  0.30062  0.47767  Biso   1.000  C
  C350     1.0000 0.72750  0.35240  0.44906  Biso   1.000  C
  H150     1.0000 0.74680  0.37010  0.43970  Biso   1.000  H
  C351     1.0000 0.67160  0.34920  0.44774  Biso   1.000  C
  C352     1.0000 0.64210  0.32050  0.46173  Biso   1.000  C
  H151     1.0000 0.60430  0.31810  0.46110  Biso   1.000  H
  C353     1.0000 0.66970  0.29620  0.47608  Biso   1.000  C
  H152     1.0000 0.65040  0.27650  0.48490  Biso   1.000  H
  C354     1.0000 0.84742  0.36528  0.45185  Biso   1.000  C
  C355     1.0000 0.89126  0.33879  0.44299  Biso   1.000  C
  H153     1.0000 0.89900  0.30260  0.44570  Biso   1.000  H
  C356     1.0000 0.92339  0.36720  0.42997  Biso   1.000  C
  H154     1.0000 0.95230  0.34970  0.42410  Biso   1.000  H
  C357     1.0000 0.91168  0.42212  0.42582  Biso   1.000  C
  C358     1.0000 0.86784  0.44862  0.43468  Biso   1.000  C
  H155     1.0000 0.86010  0.48480  0.43190  Biso   1.000  H
  C359     1.0000 0.83571  0.42020  0.44770  Biso   1.000  C
  H156     1.0000 0.80680  0.43770  0.45350  Biso   1.000  H
  O64      1.0000 0.92953  0.49720  0.40735  Biso   1.000  O
  C360     1.0000 0.94530  0.44930  0.41193  Biso   1.000  C
  O65      1.0000 0.83740  0.25300  0.50767  Biso   1.000  O
  C361     1.0000 0.90060  0.18700  0.52000  Biso   1.000  C
  C362     1.0000 0.89480  0.23380  0.50620  Biso   1.000  C
  C363     1.0000 0.89590  0.26600  0.50840  Biso   1.000  C
  C364     1.0000 0.92440  0.23500  0.52350  Biso   1.000  C
  O66      1.0000 0.01080  0.92983  0.88239  Biso   1.000  O
  O67      1.0000 0.07244  0.99497  0.88130  Biso   1.000  O
  O68      1.0000 0.48595  0.92683  0.90600  Biso   1.000  O
  C365     1.0000 0.05320  0.95140  0.88822  Biso   1.000  C
  C366     1.0000 0.14043  0.87551  0.93230  Biso   1.000  C
  C367     1.0000 0.09310  0.85072  0.92510  Biso   1.000  C
  H157     1.0000 0.08080  0.81790  0.93000  Biso   1.000  H
  C368     1.0000 0.06440  0.87570  0.91044  Biso   1.000  C
  H158     1.0000 0.03320  0.85930  0.90570  Biso   1.000  H
  C369     1.0000 0.08304  0.92539  0.90297  Biso   1.000  C
  C370     1.0000 0.13037  0.95018  0.91016  Biso   1.000  C
  H159     1.0000 0.14270  0.98300  0.90520  Biso   1.000  H
  C371     1.0000 0.15907  0.92524  0.92483  Biso   1.000  C
  H160     1.0000 0.19030  0.94160  0.92960  Biso   1.000  H
  Cu14     1.0000 0.46451  0.04058  0.88741  Biso   1.000  Cu
  C372     1.0000 0.25589  0.82988  0.96399  Biso   1.000  C
  C373     1.0000 0.31312  0.83401  0.96500  Biso   1.000  C
  C374     1.0000 0.34154  0.80887  0.97969  Biso   1.000  C
  H161     1.0000 0.37930  0.81160  0.98040  Biso   1.000  H
  C375     1.0000 0.31270  0.77960  0.99337  Biso   1.000  C
  C376     1.0000 0.25550  0.77548  0.99236  Biso   1.000  C
  C377     1.0000 0.22707  0.80062  0.97767  Biso   1.000  C
  C378     1.0000 0.22750  0.85240  0.94906  Biso   1.000  C
  H162     1.0000 0.24680  0.87010  0.93970  Biso   1.000  H
  C379     1.0000 0.17160  0.84920  0.94774  Biso   1.000  C
  C380     1.0000 0.14210  0.82050  0.96173  Biso   1.000  C
  H163     1.0000 0.10430  0.81810  0.96110  Biso   1.000  H
  C381     1.0000 0.16970  0.79620  0.97608  Biso   1.000  C
  H164     1.0000 0.15040  0.77650  0.98490  Biso   1.000  H
  C382     1.0000 0.34742  0.86528  0.95185  Biso   1.000  C
  C383     1.0000 0.39126  0.83879  0.94299  Biso   1.000  C
  H165     1.0000 0.39900  0.80260  0.94570  Biso   1.000  H
  C384     1.0000 0.42339  0.86720  0.92997  Biso   1.000  C
  H166     1.0000 0.45230  0.84970  0.92410  Biso   1.000  H
  C385     1.0000 0.41168  0.92212  0.92582  Biso   1.000  C
  C386     1.0000 0.36784  0.94862  0.93468  Biso   1.000  C
  H167     1.0000 0.36010  0.98480  0.93190  Biso   1.000  H
  C387     1.0000 0.33571  0.92020  0.94770  Biso   1.000  C
  H168     1.0000 0.30680  0.93770  0.95350  Biso   1.000  H
  O69      1.0000 0.42953  0.99720  0.90735  Biso   1.000  O
  C388     1.0000 0.44530  0.94930  0.91193  Biso   1.000  C
  O70      1.0000 0.33740  0.75300  0.00767  Biso   1.000  O
  C389     1.0000 0.40060  0.68700  0.02000  Biso   1.000  C
  C390     1.0000 0.39480  0.73380  0.00620  Biso   1.000  C
  C391     1.0000 0.39590  0.76600  0.00840  Biso   1.000  C
  C392     1.0000 0.42440  0.73500  0.02350  Biso   1.000  C
  O71      1.0000 0.98920  0.07017  0.88239  Biso   1.000  O
  O72      1.0000 0.92756  0.00503  0.88130  Biso   1.000  O
  O73      1.0000 0.51405  0.07317  0.90600  Biso   1.000  O
  C393     1.0000 0.94680  0.04860  0.88822  Biso   1.000  C
  C394     1.0000 0.85957  0.12449  0.93230  Biso   1.000  C
  C395     1.0000 0.90690  0.14928  0.92510  Biso   1.000  C
  H169     1.0000 0.91920  0.18210  0.93000  Biso   1.000  H
  C396     1.0000 0.93560  0.12430  0.91044  Biso   1.000  C
  H170     1.0000 0.96680  0.14070  0.90570  Biso   1.000  H
  C397     1.0000 0.91696  0.07461  0.90297  Biso   1.000  C
  C398     1.0000 0.86963  0.04982  0.91016  Biso   1.000  C
  H171     1.0000 0.85730  0.01700  0.90520  Biso   1.000  H
  C399     1.0000 0.84093  0.07476  0.92483  Biso   1.000  C
  H172     1.0000 0.80970  0.05840  0.92960  Biso   1.000  H
  Cu15     1.0000 0.53549  0.95942  0.88741  Biso   1.000  Cu
  C400     1.0000 0.74411  0.17012  0.96399  Biso   1.000  C
  C401     1.0000 0.68688  0.16599  0.96500  Biso   1.000  C
  C402     1.0000 0.65846  0.19113  0.97969  Biso   1.000  C
  H173     1.0000 0.62070  0.18840  0.98040  Biso   1.000  H
  C403     1.0000 0.68730  0.22040  0.99337  Biso   1.000  C
  C404     1.0000 0.74450  0.22452  0.99236  Biso   1.000  C
  C405     1.0000 0.77293  0.19938  0.97767  Biso   1.000  C
  C406     1.0000 0.77250  0.14760  0.94906  Biso   1.000  C
  H174     1.0000 0.75320  0.12990  0.93970  Biso   1.000  H
  C407     1.0000 0.82840  0.15080  0.94774  Biso   1.000  C
  C408     1.0000 0.85790  0.17950  0.96173  Biso   1.000  C
  H175     1.0000 0.89570  0.18190  0.96110  Biso   1.000  H
  C409     1.0000 0.83030  0.20380  0.97608  Biso   1.000  C
  H176     1.0000 0.84960  0.22350  0.98490  Biso   1.000  H
  C410     1.0000 0.65258  0.13472  0.95185  Biso   1.000  C
  C411     1.0000 0.60874  0.16121  0.94299  Biso   1.000  C
  H177     1.0000 0.60100  0.19740  0.94570  Biso   1.000  H
  C412     1.0000 0.57661  0.13280  0.92997  Biso   1.000  C
  H178     1.0000 0.54770  0.15030  0.92410  Biso   1.000  H
  C413     1.0000 0.58832  0.07788  0.92582  Biso   1.000  C
  C414     1.0000 0.63216  0.05138  0.93468  Biso   1.000  C
  H179     1.0000 0.63990  0.01520  0.93190  Biso   1.000  H
  C415     1.0000 0.66429  0.07980  0.94770  Biso   1.000  C
  H180     1.0000 0.69320  0.06230  0.95350  Biso   1.000  H
  O74      1.0000 0.57047  0.00280  0.90735  Biso   1.000  O
  C416     1.0000 0.55470  0.05070  0.91193  Biso   1.000  C
  O75      1.0000 0.66260  0.24700  0.00767  Biso   1.000  O
  C417     1.0000 0.59940  0.31300  0.02000  Biso   1.000  C
  C418     1.0000 0.60520  0.26620  0.00620  Biso   1.000  C
  C419     1.0000 0.60410  0.23400  0.00840  Biso   1.000  C
  C420     1.0000 0.57560  0.26500  0.02350  Biso   1.000  C
  O76      1.0000 0.48920  0.57017  0.38239  Biso   1.000  O
  O77      1.0000 0.42756  0.50503  0.38130  Biso   1.000  O
  O78      1.0000 0.01405  0.57317  0.40600  Biso   1.000  O
  C421     1.0000 0.44680  0.54860  0.38822  Biso   1.000  C
  C422     1.0000 0.35957  0.62449  0.43230  Biso   1.000  C
  C423     1.0000 0.40690  0.64928  0.42510  Biso   1.000  C
  H181     1.0000 0.41920  0.68210  0.43000  Biso   1.000  H
  C424     1.0000 0.43560  0.62430  0.41044  Biso   1.000  C
  H182     1.0000 0.46680  0.64070  0.40570  Biso   1.000  H
  C425     1.0000 0.41696  0.57461  0.40297  Biso   1.000  C
  C426     1.0000 0.36963  0.54982  0.41016  Biso   1.000  C
  H183     1.0000 0.35730  0.51700  0.40520  Biso   1.000  H
  C427     1.0000 0.34093  0.57476  0.42483  Biso   1.000  C
  H184     1.0000 0.30970  0.55840  0.42960  Biso   1.000  H
  Cu16     1.0000 0.03549  0.45942  0.38741  Biso   1.000  Cu
  C428     1.0000 0.24411  0.67012  0.46399  Biso   1.000  C
  C429     1.0000 0.18688  0.66599  0.46500  Biso   1.000  C
  C430     1.0000 0.15846  0.69113  0.47969  Biso   1.000  C
  H185     1.0000 0.12070  0.68840  0.48040  Biso   1.000  H
  C431     1.0000 0.18730  0.72040  0.49337  Biso   1.000  C
  C432     1.0000 0.24450  0.72452  0.49236  Biso   1.000  C
  C433     1.0000 0.27293  0.69938  0.47767  Biso   1.000  C
  C434     1.0000 0.27250  0.64760  0.44906  Biso   1.000  C
  H186     1.0000 0.25320  0.62990  0.43970  Biso   1.000  H
  C435     1.0000 0.32840  0.65080  0.44774  Biso   1.000  C
  C436     1.0000 0.35790  0.67950  0.46173  Biso   1.000  C
  H187     1.0000 0.39570  0.68190  0.46110  Biso   1.000  H
  C437     1.0000 0.33030  0.70380  0.47608  Biso   1.000  C
  H188     1.0000 0.34960  0.72350  0.48490  Biso   1.000  H
  C438     1.0000 0.15258  0.63472  0.45185  Biso   1.000  C
  C439     1.0000 0.10874  0.66121  0.44299  Biso   1.000  C
  H189     1.0000 0.10100  0.69740  0.44570  Biso   1.000  H
  C440     1.0000 0.07661  0.63280  0.42997  Biso   1.000  C
  H190     1.0000 0.04770  0.65030  0.42410  Biso   1.000  H
  C441     1.0000 0.08832  0.57788  0.42582  Biso   1.000  C
  C442     1.0000 0.13216  0.55138  0.43468  Biso   1.000  C
  H191     1.0000 0.13990  0.51520  0.43190  Biso   1.000  H
  C443     1.0000 0.16429  0.57980  0.44770  Biso   1.000  C
  H192     1.0000 0.19320  0.56230  0.45350  Biso   1.000  H
  O79      1.0000 0.07047  0.50280  0.40735  Biso   1.000  O
  C444     1.0000 0.05470  0.55070  0.41193  Biso   1.000  C
  O80      1.0000 0.16260  0.74700  0.50767  Biso   1.000  O
  C445     1.0000 0.09940  0.81300  0.52000  Biso   1.000  C
  C446     1.0000 0.10520  0.76620  0.50620  Biso   1.000  C
  C447     1.0000 0.10410  0.73400  0.50840  Biso   1.000  C
  C448     1.0000 0.07560  0.76500  0.52350  Biso   1.000  C
