data_image0
_cell_length_a       26.81
_cell_length_b       26.81
_cell_length_c       25.86
_cell_angle_alpha    90
_cell_angle_beta     90
_cell_angle_gamma    90

_symmetry_space_group_name_H-M    "P 1"
_symmetry_int_tables_number       1

loop_
  _symmetry_equiv_pos_as_xyz
  'x, y, z'

loop_
  _atom_site_label
  _atom_site_occupancy
  _atom_site_fract_x
  _atom_site_fract_y
  _atom_site_fract_z
  _atom_site_thermal_displace_type
  _atom_site_B_iso_or_equiv
  _atom_site_type_symbol
  N1       1.0000 0.71501  0.88611  0.19211  Biso   1.000  N
  O1       1.0000 0.93272  0.97177  0.23120  Biso   1.000  O
  O2       1.0000 0.93040  0.97752  0.14499  Biso   1.000  O
  O3       1.0000 0.56522  0.01226  0.05300  Biso   1.000  O
  O4       1.0000 0.52675  0.93855  0.05271  Biso   1.000  O
  N2       1.0000 0.99960  0.00400  0.05007  Biso   1.000  N
  C1       1.0000 0.91174  0.96704  0.18832  Biso   1.000  C
  C2       1.0000 0.85963  0.94688  0.18859  Biso   1.000  C
  C3       1.0000 0.83331  0.94042  0.14332  Biso   1.000  C
  H1       1.0000 0.84770  0.94940  0.11200  Biso   1.000  H
  C4       1.0000 0.78556  0.92059  0.14412  Biso   1.000  C
  H2       1.0000 0.76830  0.91580  0.11330  Biso   1.000  H
  C5       1.0000 0.76349  0.90782  0.19076  Biso   1.000  C
  C6       1.0000 0.78949  0.91420  0.23589  Biso   1.000  C
  H3       1.0000 0.77500  0.90540  0.26720  Biso   1.000  H
  C7       1.0000 0.83749  0.93376  0.23500  Biso   1.000  C
  H4       1.0000 0.85490  0.93810  0.26580  Biso   1.000  H
  C8       1.0000 0.67639  0.90625  0.16165  Biso   1.000  C
  C9       1.0000 0.67354  0.95708  0.15298  Biso   1.000  C
  H5       1.0000 0.69680  0.97820  0.16820  Biso   1.000  H
  C10      1.0000 0.63678  0.97690  0.12218  Biso   1.000  C
  H6       1.0000 0.63610  0.01100  0.11570  Biso   1.000  H
  C11      1.0000 0.60052  0.94611  0.10063  Biso   1.000  C
  C12      1.0000 0.60251  0.89599  0.10998  Biso   1.000  C
  H7       1.0000 0.57820  0.87530  0.09590  Biso   1.000  H
  C13      1.0000 0.63996  0.87526  0.13991  Biso   1.000  C
  H8       1.0000 0.64090  0.84100  0.14550  Biso   1.000  H
  C14      1.0000 0.56076  0.96704  0.06565  Biso   1.000  C
  C15      1.0000 0.70813  0.84162  0.22134  Biso   1.000  C
  C16      1.0000 0.74425  0.80508  0.22124  Biso   1.000  C
  H9       1.0000 0.77310  0.80930  0.20170  Biso   1.000  H
  N3       1.0000 0.99710  0.99640  0.32260  Biso   1.000  N
  C17      1.0000 0.96460  0.01400  0.36190  Biso   1.000  C
  H10      1.0000 0.93150  0.02360  0.35740  Biso   1.000  H
  N4       1.0000 0.99140  0.01430  0.40930  Biso   1.000  N
  C18      1.0000 0.04050  0.99690  0.39920  Biso   1.000  C
  H11      1.0000 0.06580  0.99340  0.42350  Biso   1.000  H
  C19      1.0000 0.04400  0.98580  0.34570  Biso   1.000  C
  H12      1.0000 0.07210  0.97380  0.32870  Biso   1.000  H
  C20      1.0000 0.96530  0.00650  0.45500  Biso   1.000  C
  C21      1.0000 0.91170  0.01390  0.45500  Biso   1.000  C
  H13      1.0000 0.89700  0.01710  0.42260  Biso   1.000  H
  N5       1.0000 0.56248  0.11462  0.99620  Biso   1.000  N
  N6       1.0000 0.61420  0.19830  0.99730  Biso   1.000  N
  C22      1.0000 0.61440  0.10860  0.98220  Biso   1.000  C
  H14      1.0000 0.61620  0.09630  0.94700  Biso   1.000  H
  H15      1.0000 0.62930  0.08370  0.00460  Biso   1.000  H
  C23      1.0000 0.64400  0.15540  0.98590  Biso   1.000  C
  H16      1.0000 0.66900  0.15150  0.01280  Biso   1.000  H
  H17      1.0000 0.66130  0.16080  0.95350  Biso   1.000  H
  C24      1.0000 0.53640  0.15590  0.01850  Biso   1.000  C
  H18      1.0000 0.53310  0.15020  0.05540  Biso   1.000  H
  H19      1.0000 0.50310  0.15720  0.00400  Biso   1.000  H
  C25      1.0000 0.56130  0.20500  0.01000  Biso   1.000  C
  H20      1.0000 0.54480  0.22260  0.98210  Biso   1.000  H
  H21      1.0000 0.55840  0.22520  0.04110  Biso   1.000  H
  C26      1.0000 0.98970  0.04840  0.02909  Biso   1.000  C
  H22      1.0000 0.94510  0.04830  0.04070  Biso   1.000  H
  C27      1.0000 0.02670  0.04290  0.02940  Biso   1.000  C
  H23      1.0000 0.99540  0.07430  0.04190  Biso   1.000  H
  C28      1.0000 0.57200  0.12960  0.04990  Biso   1.000  C
  H24      1.0000 0.59220  0.10600  0.06910  Biso   1.000  H
  H25      1.0000 0.54400  0.13920  0.06910  Biso   1.000  H
  C29      1.0000 0.60520  0.17790  0.04820  Biso   1.000  C
  H26      1.0000 0.59200  0.20290  0.07130  Biso   1.000  H
  H27      1.0000 0.63920  0.17000  0.06180  Biso   1.000  H
  H28      1.0000 0.99650  0.07460  0.04070  Biso   1.000  H
  N7       1.0000 0.28499  0.11389  0.19211  Biso   1.000  N
  O5       1.0000 0.06728  0.02823  0.23120  Biso   1.000  O
  O6       1.0000 0.06960  0.02248  0.14499  Biso   1.000  O
  O7       1.0000 0.43478  0.98774  0.05300  Biso   1.000  O
  O8       1.0000 0.47325  0.06145  0.05271  Biso   1.000  O
  N8       1.0000 0.00040  0.99600  0.05007  Biso   1.000  N
  C30      1.0000 0.08826  0.03296  0.18832  Biso   1.000  C
  C31      1.0000 0.14037  0.05312  0.18859  Biso   1.000  C
  C32      1.0000 0.16669  0.05958  0.14332  Biso   1.000  C
  H29      1.0000 0.15230  0.05060  0.11200  Biso   1.000  H
  C33      1.0000 0.21444  0.07941  0.14412  Biso   1.000  C
  H30      1.0000 0.23170  0.08420  0.11330  Biso   1.000  H
  C34      1.0000 0.23651  0.09218  0.19076  Biso   1.000  C
  C35      1.0000 0.21051  0.08580  0.23589  Biso   1.000  C
  H31      1.0000 0.22500  0.09460  0.26720  Biso   1.000  H
  C36      1.0000 0.16251  0.06624  0.23500  Biso   1.000  C
  H32      1.0000 0.14510  0.06190  0.26580  Biso   1.000  H
  C37      1.0000 0.32361  0.09375  0.16165  Biso   1.000  C
  C38      1.0000 0.32646  0.04292  0.15298  Biso   1.000  C
  H33      1.0000 0.30320  0.02180  0.16820  Biso   1.000  H
  C39      1.0000 0.36322  0.02310  0.12218  Biso   1.000  C
  H34      1.0000 0.36390  0.98900  0.11570  Biso   1.000  H
  C40      1.0000 0.39948  0.05389  0.10063  Biso   1.000  C
  C41      1.0000 0.39749  0.10401  0.10998  Biso   1.000  C
  H35      1.0000 0.42180  0.12470  0.09590  Biso   1.000  H
  C42      1.0000 0.36004  0.12474  0.13991  Biso   1.000  C
  H36      1.0000 0.35910  0.15900  0.14550  Biso   1.000  H
  C43      1.0000 0.43924  0.03296  0.06565  Biso   1.000  C
  C44      1.0000 0.29187  0.15838  0.22134  Biso   1.000  C
  C45      1.0000 0.25575  0.19492  0.22124  Biso   1.000  C
  H37      1.0000 0.22690  0.19070  0.20170  Biso   1.000  H
  N9       1.0000 0.00290  0.00360  0.32260  Biso   1.000  N
  C46      1.0000 0.03540  0.98600  0.36190  Biso   1.000  C
  H38      1.0000 0.06850  0.97640  0.35740  Biso   1.000  H
  N10      1.0000 0.00860  0.98570  0.40930  Biso   1.000  N
  C47      1.0000 0.95950  0.00310  0.39920  Biso   1.000  C
  H39      1.0000 0.93420  0.00660  0.42350  Biso   1.000  H
  C48      1.0000 0.95600  0.01420  0.34570  Biso   1.000  C
  H40      1.0000 0.92790  0.02620  0.32870  Biso   1.000  H
  C49      1.0000 0.03470  0.99350  0.45500  Biso   1.000  C
  C50      1.0000 0.08830  0.98610  0.45500  Biso   1.000  C
  H41      1.0000 0.10300  0.98290  0.42260  Biso   1.000  H
  N11      1.0000 0.43752  0.88538  0.99620  Biso   1.000  N
  N12      1.0000 0.38580  0.80170  0.99730  Biso   1.000  N
  C51      1.0000 0.38560  0.89140  0.98220  Biso   1.000  C
  H42      1.0000 0.38380  0.90370  0.94700  Biso   1.000  H
  H43      1.0000 0.37070  0.91630  0.00460  Biso   1.000  H
  C52      1.0000 0.35600  0.84460  0.98590  Biso   1.000  C
  H44      1.0000 0.33100  0.84850  0.01280  Biso   1.000  H
  H45      1.0000 0.33870  0.83920  0.95350  Biso   1.000  H
  C53      1.0000 0.46360  0.84410  0.01850  Biso   1.000  C
  H46      1.0000 0.46690  0.84980  0.05540  Biso   1.000  H
  H47      1.0000 0.49690  0.84280  0.00400  Biso   1.000  H
  C54      1.0000 0.43870  0.79500  0.01000  Biso   1.000  C
  H48      1.0000 0.45520  0.77740  0.98210  Biso   1.000  H
  H49      1.0000 0.44160  0.77480  0.04110  Biso   1.000  H
  C55      1.0000 0.01030  0.95160  0.02909  Biso   1.000  C
  H50      1.0000 0.05490  0.95170  0.04070  Biso   1.000  H
  C56      1.0000 0.97330  0.95710  0.02940  Biso   1.000  C
  H51      1.0000 0.00460  0.92570  0.04190  Biso   1.000  H
  C57      1.0000 0.42800  0.87040  0.04990  Biso   1.000  C
  H52      1.0000 0.40780  0.89400  0.06910  Biso   1.000  H
  H53      1.0000 0.45600  0.86080  0.06910  Biso   1.000  H
  C58      1.0000 0.39480  0.82210  0.04820  Biso   1.000  C
  H54      1.0000 0.40800  0.79710  0.07130  Biso   1.000  H
  H55      1.0000 0.36080  0.83000  0.06180  Biso   1.000  H
  H56      1.0000 0.00350  0.92540  0.04070  Biso   1.000  H
  N13      1.0000 0.11389  0.71501  0.19211  Biso   1.000  N
  O9       1.0000 0.02823  0.93272  0.23120  Biso   1.000  O
  O10      1.0000 0.02248  0.93040  0.14499  Biso   1.000  O
  O11      1.0000 0.98774  0.56522  0.05300  Biso   1.000  O
  O12      1.0000 0.06145  0.52675  0.05271  Biso   1.000  O
  N14      1.0000 0.99600  0.99960  0.05007  Biso   1.000  N
  C59      1.0000 0.03296  0.91174  0.18832  Biso   1.000  C
  C60      1.0000 0.05312  0.85963  0.18859  Biso   1.000  C
  C61      1.0000 0.05958  0.83331  0.14332  Biso   1.000  C
  H57      1.0000 0.05060  0.84770  0.11200  Biso   1.000  H
  C62      1.0000 0.07941  0.78556  0.14412  Biso   1.000  C
  H58      1.0000 0.08420  0.76830  0.11330  Biso   1.000  H
  C63      1.0000 0.09218  0.76349  0.19076  Biso   1.000  C
  C64      1.0000 0.08580  0.78949  0.23589  Biso   1.000  C
  H59      1.0000 0.09460  0.77500  0.26720  Biso   1.000  H
  C65      1.0000 0.06624  0.83749  0.23500  Biso   1.000  C
  H60      1.0000 0.06190  0.85490  0.26580  Biso   1.000  H
  C66      1.0000 0.09375  0.67639  0.16165  Biso   1.000  C
  C67      1.0000 0.04292  0.67354  0.15298  Biso   1.000  C
  H61      1.0000 0.02180  0.69680  0.16820  Biso   1.000  H
  C68      1.0000 0.02310  0.63678  0.12218  Biso   1.000  C
  H62      1.0000 0.98900  0.63610  0.11570  Biso   1.000  H
  C69      1.0000 0.05389  0.60052  0.10063  Biso   1.000  C
  C70      1.0000 0.10401  0.60251  0.10998  Biso   1.000  C
  H63      1.0000 0.12470  0.57820  0.09590  Biso   1.000  H
  C71      1.0000 0.12474  0.63996  0.13991  Biso   1.000  C
  H64      1.0000 0.15900  0.64090  0.14550  Biso   1.000  H
  C72      1.0000 0.03296  0.56076  0.06565  Biso   1.000  C
  C73      1.0000 0.15838  0.70813  0.22134  Biso   1.000  C
  C74      1.0000 0.19492  0.74425  0.22124  Biso   1.000  C
  H65      1.0000 0.19070  0.77310  0.20170  Biso   1.000  H
  N15      1.0000 0.00360  0.99710  0.32260  Biso   1.000  N
  C75      1.0000 0.98600  0.96460  0.36190  Biso   1.000  C
  H66      1.0000 0.97640  0.93150  0.35740  Biso   1.000  H
  N16      1.0000 0.98570  0.99140  0.40930  Biso   1.000  N
  C76      1.0000 0.00310  0.04050  0.39920  Biso   1.000  C
  H67      1.0000 0.00660  0.06580  0.42350  Biso   1.000  H
  C77      1.0000 0.01420  0.04400  0.34570  Biso   1.000  C
  H68      1.0000 0.02620  0.07210  0.32870  Biso   1.000  H
  C78      1.0000 0.99350  0.96530  0.45500  Biso   1.000  C
  C79      1.0000 0.98610  0.91170  0.45500  Biso   1.000  C
  H69      1.0000 0.98290  0.89700  0.42260  Biso   1.000  H
  N17      1.0000 0.88538  0.56248  0.99620  Biso   1.000  N
  N18      1.0000 0.80170  0.61420  0.99730  Biso   1.000  N
  C80      1.0000 0.89140  0.61440  0.98220  Biso   1.000  C
  H70      1.0000 0.90370  0.61620  0.94700  Biso   1.000  H
  H71      1.0000 0.91630  0.62930  0.00460  Biso   1.000  H
  C81      1.0000 0.84460  0.64400  0.98590  Biso   1.000  C
  H72      1.0000 0.84850  0.66900  0.01280  Biso   1.000  H
  H73      1.0000 0.83920  0.66130  0.95350  Biso   1.000  H
  C82      1.0000 0.84410  0.53640  0.01850  Biso   1.000  C
  H74      1.0000 0.84980  0.53310  0.05540  Biso   1.000  H
  H75      1.0000 0.84280  0.50310  0.00400  Biso   1.000  H
  C83      1.0000 0.79500  0.56130  0.01000  Biso   1.000  C
  H76      1.0000 0.77740  0.54480  0.98210  Biso   1.000  H
  H77      1.0000 0.77480  0.55840  0.04110  Biso   1.000  H
  C84      1.0000 0.95160  0.98970  0.02909  Biso   1.000  C
  H78      1.0000 0.95170  0.94510  0.04070  Biso   1.000  H
  C85      1.0000 0.95710  0.02670  0.02940  Biso   1.000  C
  H79      1.0000 0.92570  0.99540  0.04190  Biso   1.000  H
  C86      1.0000 0.87040  0.57200  0.04990  Biso   1.000  C
  H80      1.0000 0.89400  0.59220  0.06910  Biso   1.000  H
  H81      1.0000 0.86080  0.54400  0.06910  Biso   1.000  H
  C87      1.0000 0.82210  0.60520  0.04820  Biso   1.000  C
  H82      1.0000 0.79710  0.59200  0.07130  Biso   1.000  H
  H83      1.0000 0.83000  0.63920  0.06180  Biso   1.000  H
  H84      1.0000 0.92540  0.99650  0.04070  Biso   1.000  H
  N19      1.0000 0.88611  0.28499  0.19211  Biso   1.000  N
  O13      1.0000 0.97177  0.06728  0.23120  Biso   1.000  O
  O14      1.0000 0.97752  0.06960  0.14499  Biso   1.000  O
  O15      1.0000 0.01226  0.43478  0.05300  Biso   1.000  O
  O16      1.0000 0.93855  0.47325  0.05271  Biso   1.000  O
  N20      1.0000 0.00400  0.00040  0.05007  Biso   1.000  N
  C88      1.0000 0.96704  0.08826  0.18832  Biso   1.000  C
  C89      1.0000 0.94688  0.14037  0.18859  Biso   1.000  C
  C90      1.0000 0.94042  0.16669  0.14332  Biso   1.000  C
  H85      1.0000 0.94940  0.15230  0.11200  Biso   1.000  H
  C91      1.0000 0.92059  0.21444  0.14412  Biso   1.000  C
  H86      1.0000 0.91580  0.23170  0.11330  Biso   1.000  H
  C92      1.0000 0.90782  0.23651  0.19076  Biso   1.000  C
  C93      1.0000 0.91420  0.21051  0.23589  Biso   1.000  C
  H87      1.0000 0.90540  0.22500  0.26720  Biso   1.000  H
  C94      1.0000 0.93376  0.16251  0.23500  Biso   1.000  C
  H88      1.0000 0.93810  0.14510  0.26580  Biso   1.000  H
  C95      1.0000 0.90625  0.32361  0.16165  Biso   1.000  C
  C96      1.0000 0.95708  0.32646  0.15298  Biso   1.000  C
  H89      1.0000 0.97820  0.30320  0.16820  Biso   1.000  H
  C97      1.0000 0.97690  0.36322  0.12218  Biso   1.000  C
  H90      1.0000 0.01100  0.36390  0.11570  Biso   1.000  H
  C98      1.0000 0.94611  0.39948  0.10063  Biso   1.000  C
  C99      1.0000 0.89599  0.39749  0.10998  Biso   1.000  C
  H91      1.0000 0.87530  0.42180  0.09590  Biso   1.000  H
  C100     1.0000 0.87526  0.36004  0.13991  Biso   1.000  C
  H92      1.0000 0.84100  0.35910  0.14550  Biso   1.000  H
  C101     1.0000 0.96704  0.43924  0.06565  Biso   1.000  C
  C102     1.0000 0.84162  0.29187  0.22134  Biso   1.000  C
  C103     1.0000 0.80508  0.25575  0.22124  Biso   1.000  C
  H93      1.0000 0.80930  0.22690  0.20170  Biso   1.000  H
  N21      1.0000 0.99640  0.00290  0.32260  Biso   1.000  N
  C104     1.0000 0.01400  0.03540  0.36190  Biso   1.000  C
  H94      1.0000 0.02360  0.06850  0.35740  Biso   1.000  H
  N22      1.0000 0.01430  0.00860  0.40930  Biso   1.000  N
  C105     1.0000 0.99690  0.95950  0.39920  Biso   1.000  C
  H95      1.0000 0.99340  0.93420  0.42350  Biso   1.000  H
  C106     1.0000 0.98580  0.95600  0.34570  Biso   1.000  C
  H96      1.0000 0.97380  0.92790  0.32870  Biso   1.000  H
  C107     1.0000 0.00650  0.03470  0.45500  Biso   1.000  C
  C108     1.0000 0.01390  0.08830  0.45500  Biso   1.000  C
  H97      1.0000 0.01710  0.10300  0.42260  Biso   1.000  H
  N23      1.0000 0.11462  0.43752  0.99620  Biso   1.000  N
  N24      1.0000 0.19830  0.38580  0.99730  Biso   1.000  N
  C109     1.0000 0.10860  0.38560  0.98220  Biso   1.000  C
  H98      1.0000 0.09630  0.38380  0.94700  Biso   1.000  H
  H99      1.0000 0.08370  0.37070  0.00460  Biso   1.000  H
  C110     1.0000 0.15540  0.35600  0.98590  Biso   1.000  C
  H100     1.0000 0.15150  0.33100  0.01280  Biso   1.000  H
  H101     1.0000 0.16080  0.33870  0.95350  Biso   1.000  H
  C111     1.0000 0.15590  0.46360  0.01850  Biso   1.000  C
  H102     1.0000 0.15020  0.46690  0.05540  Biso   1.000  H
  H103     1.0000 0.15720  0.49690  0.00400  Biso   1.000  H
  C112     1.0000 0.20500  0.43870  0.01000  Biso   1.000  C
  H104     1.0000 0.22260  0.45520  0.98210  Biso   1.000  H
  H105     1.0000 0.22520  0.44160  0.04110  Biso   1.000  H
  C113     1.0000 0.04840  0.01030  0.02909  Biso   1.000  C
  H106     1.0000 0.04830  0.05490  0.04070  Biso   1.000  H
  C114     1.0000 0.04290  0.97330  0.02940  Biso   1.000  C
  H107     1.0000 0.07430  0.00460  0.04190  Biso   1.000  H
  C115     1.0000 0.12960  0.42800  0.04990  Biso   1.000  C
  H108     1.0000 0.10600  0.40780  0.06910  Biso   1.000  H
  H109     1.0000 0.13920  0.45600  0.06910  Biso   1.000  H
  C116     1.0000 0.17790  0.39480  0.04820  Biso   1.000  C
  H110     1.0000 0.20290  0.40800  0.07130  Biso   1.000  H
  H111     1.0000 0.17000  0.36080  0.06180  Biso   1.000  H
  H112     1.0000 0.07460  0.00350  0.04070  Biso   1.000  H
  N25      1.0000 0.78499  0.38611  0.30789  Biso   1.000  N
  O17      1.0000 0.56728  0.47177  0.26880  Biso   1.000  O
  O18      1.0000 0.56960  0.47752  0.35501  Biso   1.000  O
  O19      1.0000 0.93478  0.51226  0.44700  Biso   1.000  O
  O20      1.0000 0.97325  0.43855  0.44729  Biso   1.000  O
  N26      1.0000 0.50040  0.50400  0.44993  Biso   1.000  N
  C117     1.0000 0.58826  0.46704  0.31168  Biso   1.000  C
  C118     1.0000 0.64037  0.44688  0.31141  Biso   1.000  C
  C119     1.0000 0.66669  0.44042  0.35668  Biso   1.000  C
  H113     1.0000 0.65230  0.44940  0.38800  Biso   1.000  H
  C120     1.0000 0.71444  0.42059  0.35588  Biso   1.000  C
  H114     1.0000 0.73170  0.41580  0.38670  Biso   1.000  H
  C121     1.0000 0.73651  0.40782  0.30924  Biso   1.000  C
  C122     1.0000 0.71051  0.41420  0.26411  Biso   1.000  C
  H115     1.0000 0.72500  0.40540  0.23280  Biso   1.000  H
  C123     1.0000 0.66251  0.43376  0.26500  Biso   1.000  C
  H116     1.0000 0.64510  0.43810  0.23420  Biso   1.000  H
  C124     1.0000 0.82361  0.40625  0.33835  Biso   1.000  C
  C125     1.0000 0.82646  0.45708  0.34702  Biso   1.000  C
  H117     1.0000 0.80320  0.47820  0.33180  Biso   1.000  H
  C126     1.0000 0.86322  0.47690  0.37782  Biso   1.000  C
  H118     1.0000 0.86390  0.51100  0.38430  Biso   1.000  H
  C127     1.0000 0.89948  0.44611  0.39937  Biso   1.000  C
  C128     1.0000 0.89749  0.39599  0.39002  Biso   1.000  C
  H119     1.0000 0.92180  0.37530  0.40410  Biso   1.000  H
  C129     1.0000 0.86004  0.37526  0.36009  Biso   1.000  C
  H120     1.0000 0.85910  0.34100  0.35450  Biso   1.000  H
  C130     1.0000 0.93924  0.46704  0.43435  Biso   1.000  C
  C131     1.0000 0.79187  0.34162  0.27866  Biso   1.000  C
  C132     1.0000 0.75575  0.30508  0.27876  Biso   1.000  C
  H121     1.0000 0.72690  0.30930  0.29830  Biso   1.000  H
  N27      1.0000 0.50290  0.49640  0.17740  Biso   1.000  N
  C133     1.0000 0.53540  0.51400  0.13810  Biso   1.000  C
  H122     1.0000 0.56850  0.52360  0.14260  Biso   1.000  H
  N28      1.0000 0.50860  0.51430  0.09070  Biso   1.000  N
  C134     1.0000 0.45950  0.49690  0.10080  Biso   1.000  C
  H123     1.0000 0.43420  0.49340  0.07650  Biso   1.000  H
  C135     1.0000 0.45600  0.48580  0.15430  Biso   1.000  C
  H124     1.0000 0.42790  0.47380  0.17130  Biso   1.000  H
  C136     1.0000 0.53470  0.50650  0.04500  Biso   1.000  C
  C137     1.0000 0.58830  0.51390  0.04500  Biso   1.000  C
  H125     1.0000 0.60300  0.51710  0.07740  Biso   1.000  H
  N29      1.0000 0.93752  0.61462  0.50380  Biso   1.000  N
  N30      1.0000 0.88580  0.69830  0.50270  Biso   1.000  N
  C138     1.0000 0.88560  0.60860  0.51780  Biso   1.000  C
  H126     1.0000 0.88380  0.59630  0.55300  Biso   1.000  H
  H127     1.0000 0.87070  0.58370  0.49540  Biso   1.000  H
  C139     1.0000 0.85600  0.65540  0.51410  Biso   1.000  C
  H128     1.0000 0.83100  0.65150  0.48720  Biso   1.000  H
  H129     1.0000 0.83870  0.66080  0.54650  Biso   1.000  H
  C140     1.0000 0.96360  0.65590  0.48150  Biso   1.000  C
  H130     1.0000 0.96690  0.65020  0.44460  Biso   1.000  H
  H131     1.0000 0.99690  0.65720  0.49600  Biso   1.000  H
  C141     1.0000 0.93870  0.70500  0.49000  Biso   1.000  C
  H132     1.0000 0.95520  0.72260  0.51790  Biso   1.000  H
  H133     1.0000 0.94160  0.72520  0.45890  Biso   1.000  H
  C142     1.0000 0.51030  0.54840  0.47091  Biso   1.000  C
  H134     1.0000 0.55490  0.54830  0.45930  Biso   1.000  H
  C143     1.0000 0.47330  0.54290  0.47060  Biso   1.000  C
  H135     1.0000 0.50460  0.57430  0.45810  Biso   1.000  H
  C144     1.0000 0.92800  0.62960  0.45010  Biso   1.000  C
  H136     1.0000 0.90780  0.60600  0.43090  Biso   1.000  H
  H137     1.0000 0.95600  0.63920  0.43090  Biso   1.000  H
  C145     1.0000 0.89480  0.67790  0.45180  Biso   1.000  C
  H138     1.0000 0.90800  0.70290  0.42870  Biso   1.000  H
  H139     1.0000 0.86080  0.67000  0.43820  Biso   1.000  H
  H140     1.0000 0.50350  0.57460  0.45930  Biso   1.000  H
  N31      1.0000 0.21501  0.61389  0.30789  Biso   1.000  N
  O21      1.0000 0.43272  0.52823  0.26880  Biso   1.000  O
  O22      1.0000 0.43040  0.52248  0.35501  Biso   1.000  O
  O23      1.0000 0.06522  0.48774  0.44700  Biso   1.000  O
  O24      1.0000 0.02675  0.56145  0.44729  Biso   1.000  O
  N32      1.0000 0.49960  0.49600  0.44993  Biso   1.000  N
  C146     1.0000 0.41174  0.53296  0.31168  Biso   1.000  C
  C147     1.0000 0.35963  0.55312  0.31141  Biso   1.000  C
  C148     1.0000 0.33331  0.55958  0.35668  Biso   1.000  C
  H141     1.0000 0.34770  0.55060  0.38800  Biso   1.000  H
  C149     1.0000 0.28556  0.57941  0.35588  Biso   1.000  C
  H142     1.0000 0.26830  0.58420  0.38670  Biso   1.000  H
  C150     1.0000 0.26349  0.59218  0.30924  Biso   1.000  C
  C151     1.0000 0.28949  0.58580  0.26411  Biso   1.000  C
  H143     1.0000 0.27500  0.59460  0.23280  Biso   1.000  H
  C152     1.0000 0.33749  0.56624  0.26500  Biso   1.000  C
  H144     1.0000 0.35490  0.56190  0.23420  Biso   1.000  H
  C153     1.0000 0.17639  0.59375  0.33835  Biso   1.000  C
  C154     1.0000 0.17354  0.54292  0.34702  Biso   1.000  C
  H145     1.0000 0.19680  0.52180  0.33180  Biso   1.000  H
  C155     1.0000 0.13678  0.52310  0.37782  Biso   1.000  C
  H146     1.0000 0.13610  0.48900  0.38430  Biso   1.000  H
  C156     1.0000 0.10052  0.55389  0.39937  Biso   1.000  C
  C157     1.0000 0.10251  0.60401  0.39002  Biso   1.000  C
  H147     1.0000 0.07820  0.62470  0.40410  Biso   1.000  H
  C158     1.0000 0.13996  0.62474  0.36009  Biso   1.000  C
  H148     1.0000 0.14090  0.65900  0.35450  Biso   1.000  H
  C159     1.0000 0.06076  0.53296  0.43435  Biso   1.000  C
  C160     1.0000 0.20813  0.65838  0.27866  Biso   1.000  C
  C161     1.0000 0.24425  0.69492  0.27876  Biso   1.000  C
  H149     1.0000 0.27310  0.69070  0.29830  Biso   1.000  H
  N33      1.0000 0.49710  0.50360  0.17740  Biso   1.000  N
  C162     1.0000 0.46460  0.48600  0.13810  Biso   1.000  C
  H150     1.0000 0.43150  0.47640  0.14260  Biso   1.000  H
  N34      1.0000 0.49140  0.48570  0.09070  Biso   1.000  N
  C163     1.0000 0.54050  0.50310  0.10080  Biso   1.000  C
  H151     1.0000 0.56580  0.50660  0.07650  Biso   1.000  H
  C164     1.0000 0.54400  0.51420  0.15430  Biso   1.000  C
  H152     1.0000 0.57210  0.52620  0.17130  Biso   1.000  H
  C165     1.0000 0.46530  0.49350  0.04500  Biso   1.000  C
  C166     1.0000 0.41170  0.48610  0.04500  Biso   1.000  C
  H153     1.0000 0.39700  0.48290  0.07740  Biso   1.000  H
  N35      1.0000 0.06248  0.38538  0.50380  Biso   1.000  N
  N36      1.0000 0.11420  0.30170  0.50270  Biso   1.000  N
  C167     1.0000 0.11440  0.39140  0.51780  Biso   1.000  C
  H154     1.0000 0.11620  0.40370  0.55300  Biso   1.000  H
  H155     1.0000 0.12930  0.41630  0.49540  Biso   1.000  H
  C168     1.0000 0.14400  0.34460  0.51410  Biso   1.000  C
  H156     1.0000 0.16900  0.34850  0.48720  Biso   1.000  H
  H157     1.0000 0.16130  0.33920  0.54650  Biso   1.000  H
  C169     1.0000 0.03640  0.34410  0.48150  Biso   1.000  C
  H158     1.0000 0.03310  0.34980  0.44460  Biso   1.000  H
  H159     1.0000 0.00310  0.34280  0.49600  Biso   1.000  H
  C170     1.0000 0.06130  0.29500  0.49000  Biso   1.000  C
  H160     1.0000 0.04480  0.27740  0.51790  Biso   1.000  H
  H161     1.0000 0.05840  0.27480  0.45890  Biso   1.000  H
  C171     1.0000 0.48970  0.45160  0.47091  Biso   1.000  C
  H162     1.0000 0.44510  0.45170  0.45930  Biso   1.000  H
  C172     1.0000 0.52670  0.45710  0.47060  Biso   1.000  C
  H163     1.0000 0.49540  0.42570  0.45810  Biso   1.000  H
  C173     1.0000 0.07200  0.37040  0.45010  Biso   1.000  C
  H164     1.0000 0.09220  0.39400  0.43090  Biso   1.000  H
  H165     1.0000 0.04400  0.36080  0.43090  Biso   1.000  H
  C174     1.0000 0.10520  0.32210  0.45180  Biso   1.000  C
  H166     1.0000 0.09200  0.29710  0.42870  Biso   1.000  H
  H167     1.0000 0.13920  0.33000  0.43820  Biso   1.000  H
  H168     1.0000 0.49650  0.42540  0.45930  Biso   1.000  H
  N37      1.0000 0.38611  0.21501  0.30789  Biso   1.000  N
  O25      1.0000 0.47177  0.43272  0.26880  Biso   1.000  O
  O26      1.0000 0.47752  0.43040  0.35501  Biso   1.000  O
  O27      1.0000 0.51226  0.06522  0.44700  Biso   1.000  O
  O28      1.0000 0.43855  0.02675  0.44729  Biso   1.000  O
  N38      1.0000 0.50400  0.49960  0.44993  Biso   1.000  N
  C175     1.0000 0.46704  0.41174  0.31168  Biso   1.000  C
  C176     1.0000 0.44688  0.35963  0.31141  Biso   1.000  C
  C177     1.0000 0.44042  0.33331  0.35668  Biso   1.000  C
  H169     1.0000 0.44940  0.34770  0.38800  Biso   1.000  H
  C178     1.0000 0.42059  0.28556  0.35588  Biso   1.000  C
  H170     1.0000 0.41580  0.26830  0.38670  Biso   1.000  H
  C179     1.0000 0.40782  0.26349  0.30924  Biso   1.000  C
  C180     1.0000 0.41420  0.28949  0.26411  Biso   1.000  C
  H171     1.0000 0.40540  0.27500  0.23280  Biso   1.000  H
  C181     1.0000 0.43376  0.33749  0.26500  Biso   1.000  C
  H172     1.0000 0.43810  0.35490  0.23420  Biso   1.000  H
  C182     1.0000 0.40625  0.17639  0.33835  Biso   1.000  C
  C183     1.0000 0.45708  0.17354  0.34702  Biso   1.000  C
  H173     1.0000 0.47820  0.19680  0.33180  Biso   1.000  H
  C184     1.0000 0.47690  0.13678  0.37782  Biso   1.000  C
  H174     1.0000 0.51100  0.13610  0.38430  Biso   1.000  H
  C185     1.0000 0.44611  0.10052  0.39937  Biso   1.000  C
  C186     1.0000 0.39599  0.10251  0.39002  Biso   1.000  C
  H175     1.0000 0.37530  0.07820  0.40410  Biso   1.000  H
  C187     1.0000 0.37526  0.13996  0.36009  Biso   1.000  C
  H176     1.0000 0.34100  0.14090  0.35450  Biso   1.000  H
  C188     1.0000 0.46704  0.06076  0.43435  Biso   1.000  C
  C189     1.0000 0.34162  0.20813  0.27866  Biso   1.000  C
  C190     1.0000 0.30508  0.24425  0.27876  Biso   1.000  C
  H177     1.0000 0.30930  0.27310  0.29830  Biso   1.000  H
  N39      1.0000 0.49640  0.49710  0.17740  Biso   1.000  N
  C191     1.0000 0.51400  0.46460  0.13810  Biso   1.000  C
  H178     1.0000 0.52360  0.43150  0.14260  Biso   1.000  H
  N40      1.0000 0.51430  0.49140  0.09070  Biso   1.000  N
  C192     1.0000 0.49690  0.54050  0.10080  Biso   1.000  C
  H179     1.0000 0.49340  0.56580  0.07650  Biso   1.000  H
  C193     1.0000 0.48580  0.54400  0.15430  Biso   1.000  C
  H180     1.0000 0.47380  0.57210  0.17130  Biso   1.000  H
  C194     1.0000 0.50650  0.46530  0.04500  Biso   1.000  C
  C195     1.0000 0.51390  0.41170  0.04500  Biso   1.000  C
  H181     1.0000 0.51710  0.39700  0.07740  Biso   1.000  H
  N41      1.0000 0.61462  0.06248  0.50380  Biso   1.000  N
  N42      1.0000 0.69830  0.11420  0.50270  Biso   1.000  N
  C196     1.0000 0.60860  0.11440  0.51780  Biso   1.000  C
  H182     1.0000 0.59630  0.11620  0.55300  Biso   1.000  H
  H183     1.0000 0.58370  0.12930  0.49540  Biso   1.000  H
  C197     1.0000 0.65540  0.14400  0.51410  Biso   1.000  C
  H184     1.0000 0.65150  0.16900  0.48720  Biso   1.000  H
  H185     1.0000 0.66080  0.16130  0.54650  Biso   1.000  H
  C198     1.0000 0.65590  0.03640  0.48150  Biso   1.000  C
  H186     1.0000 0.65020  0.03310  0.44460  Biso   1.000  H
  H187     1.0000 0.65720  0.00310  0.49600  Biso   1.000  H
  C199     1.0000 0.70500  0.06130  0.49000  Biso   1.000  C
  H188     1.0000 0.72260  0.04480  0.51790  Biso   1.000  H
  H189     1.0000 0.72520  0.05840  0.45890  Biso   1.000  H
  C200     1.0000 0.54840  0.48970  0.47091  Biso   1.000  C
  H190     1.0000 0.54830  0.44510  0.45930  Biso   1.000  H
  C201     1.0000 0.54290  0.52670  0.47060  Biso   1.000  C
  H191     1.0000 0.57430  0.49540  0.45810  Biso   1.000  H
  C202     1.0000 0.62960  0.07200  0.45010  Biso   1.000  C
  H192     1.0000 0.60600  0.09220  0.43090  Biso   1.000  H
  H193     1.0000 0.63920  0.04400  0.43090  Biso   1.000  H
  C203     1.0000 0.67790  0.10520  0.45180  Biso   1.000  C
  H194     1.0000 0.70290  0.09200  0.42870  Biso   1.000  H
  H195     1.0000 0.67000  0.13920  0.43820  Biso   1.000  H
  H196     1.0000 0.57460  0.49650  0.45930  Biso   1.000  H
  N43      1.0000 0.61389  0.78499  0.30789  Biso   1.000  N
  O29      1.0000 0.52823  0.56728  0.26880  Biso   1.000  O
  O30      1.0000 0.52248  0.56960  0.35501  Biso   1.000  O
  O31      1.0000 0.48774  0.93478  0.44700  Biso   1.000  O
  O32      1.0000 0.56145  0.97325  0.44729  Biso   1.000  O
  N44      1.0000 0.49600  0.50040  0.44993  Biso   1.000  N
  C204     1.0000 0.53296  0.58826  0.31168  Biso   1.000  C
  C205     1.0000 0.55312  0.64037  0.31141  Biso   1.000  C
  C206     1.0000 0.55958  0.66669  0.35668  Biso   1.000  C
  H197     1.0000 0.55060  0.65230  0.38800  Biso   1.000  H
  C207     1.0000 0.57941  0.71444  0.35588  Biso   1.000  C
  H198     1.0000 0.58420  0.73170  0.38670  Biso   1.000  H
  C208     1.0000 0.59218  0.73651  0.30924  Biso   1.000  C
  C209     1.0000 0.58580  0.71051  0.26411  Biso   1.000  C
  H199     1.0000 0.59460  0.72500  0.23280  Biso   1.000  H
  C210     1.0000 0.56624  0.66251  0.26500  Biso   1.000  C
  H200     1.0000 0.56190  0.64510  0.23420  Biso   1.000  H
  C211     1.0000 0.59375  0.82361  0.33835  Biso   1.000  C
  C212     1.0000 0.54292  0.82646  0.34702  Biso   1.000  C
  H201     1.0000 0.52180  0.80320  0.33180  Biso   1.000  H
  C213     1.0000 0.52310  0.86322  0.37782  Biso   1.000  C
  H202     1.0000 0.48900  0.86390  0.38430  Biso   1.000  H
  C214     1.0000 0.55389  0.89948  0.39937  Biso   1.000  C
  C215     1.0000 0.60401  0.89749  0.39002  Biso   1.000  C
  H203     1.0000 0.62470  0.92180  0.40410  Biso   1.000  H
  C216     1.0000 0.62474  0.86004  0.36009  Biso   1.000  C
  H204     1.0000 0.65900  0.85910  0.35450  Biso   1.000  H
  C217     1.0000 0.53296  0.93924  0.43435  Biso   1.000  C
  C218     1.0000 0.65838  0.79187  0.27866  Biso   1.000  C
  C219     1.0000 0.69492  0.75575  0.27876  Biso   1.000  C
  H205     1.0000 0.69070  0.72690  0.29830  Biso   1.000  H
  N45      1.0000 0.50360  0.50290  0.17740  Biso   1.000  N
  C220     1.0000 0.48600  0.53540  0.13810  Biso   1.000  C
  H206     1.0000 0.47640  0.56850  0.14260  Biso   1.000  H
  N46      1.0000 0.48570  0.50860  0.09070  Biso   1.000  N
  C221     1.0000 0.50310  0.45950  0.10080  Biso   1.000  C
  H207     1.0000 0.50660  0.43420  0.07650  Biso   1.000  H
  C222     1.0000 0.51420  0.45600  0.15430  Biso   1.000  C
  H208     1.0000 0.52620  0.42790  0.17130  Biso   1.000  H
  C223     1.0000 0.49350  0.53470  0.04500  Biso   1.000  C
  C224     1.0000 0.48610  0.58830  0.04500  Biso   1.000  C
  H209     1.0000 0.48290  0.60300  0.07740  Biso   1.000  H
  N47      1.0000 0.38538  0.93752  0.50380  Biso   1.000  N
  N48      1.0000 0.30170  0.88580  0.50270  Biso   1.000  N
  C225     1.0000 0.39140  0.88560  0.51780  Biso   1.000  C
  H210     1.0000 0.40370  0.88380  0.55300  Biso   1.000  H
  H211     1.0000 0.41630  0.87070  0.49540  Biso   1.000  H
  C226     1.0000 0.34460  0.85600  0.51410  Biso   1.000  C
  H212     1.0000 0.34850  0.83100  0.48720  Biso   1.000  H
  H213     1.0000 0.33920  0.83870  0.54650  Biso   1.000  H
  C227     1.0000 0.34410  0.96360  0.48150  Biso   1.000  C
  H214     1.0000 0.34980  0.96690  0.44460  Biso   1.000  H
  H215     1.0000 0.34280  0.99690  0.49600  Biso   1.000  H
  C228     1.0000 0.29500  0.93870  0.49000  Biso   1.000  C
  H216     1.0000 0.27740  0.95520  0.51790  Biso   1.000  H
  H217     1.0000 0.27480  0.94160  0.45890  Biso   1.000  H
  C229     1.0000 0.45160  0.51030  0.47091  Biso   1.000  C
  H218     1.0000 0.45170  0.55490  0.45930  Biso   1.000  H
  C230     1.0000 0.45710  0.47330  0.47060  Biso   1.000  C
  H219     1.0000 0.42570  0.50460  0.45810  Biso   1.000  H
  C231     1.0000 0.37040  0.92800  0.45010  Biso   1.000  C
  H220     1.0000 0.39400  0.90780  0.43090  Biso   1.000  H
  H221     1.0000 0.36080  0.95600  0.43090  Biso   1.000  H
  C232     1.0000 0.32210  0.89480  0.45180  Biso   1.000  C
  H222     1.0000 0.29710  0.90800  0.42870  Biso   1.000  H
  H223     1.0000 0.33000  0.86080  0.43820  Biso   1.000  H
  H224     1.0000 0.42540  0.50350  0.45930  Biso   1.000  H
  N49      1.0000 0.28499  0.11389  0.80789  Biso   1.000  N
  O33      1.0000 0.06728  0.02823  0.76880  Biso   1.000  O
  O34      1.0000 0.06960  0.02248  0.85501  Biso   1.000  O
  O35      1.0000 0.43478  0.98774  0.94700  Biso   1.000  O
  O36      1.0000 0.47325  0.06145  0.94729  Biso   1.000  O
  N50      1.0000 0.00040  0.99600  0.94993  Biso   1.000  N
  C233     1.0000 0.08826  0.03296  0.81168  Biso   1.000  C
  C234     1.0000 0.14037  0.05312  0.81141  Biso   1.000  C
  C235     1.0000 0.16669  0.05958  0.85668  Biso   1.000  C
  H225     1.0000 0.15230  0.05060  0.88800  Biso   1.000  H
  C236     1.0000 0.21444  0.07941  0.85588  Biso   1.000  C
  H226     1.0000 0.23170  0.08420  0.88670  Biso   1.000  H
  C237     1.0000 0.23651  0.09218  0.80924  Biso   1.000  C
  C238     1.0000 0.21051  0.08580  0.76411  Biso   1.000  C
  H227     1.0000 0.22500  0.09460  0.73280  Biso   1.000  H
  C239     1.0000 0.16251  0.06624  0.76500  Biso   1.000  C
  H228     1.0000 0.14510  0.06190  0.73420  Biso   1.000  H
  C240     1.0000 0.32361  0.09375  0.83835  Biso   1.000  C
  C241     1.0000 0.32646  0.04292  0.84702  Biso   1.000  C
  H229     1.0000 0.30320  0.02180  0.83180  Biso   1.000  H
  C242     1.0000 0.36322  0.02310  0.87782  Biso   1.000  C
  H230     1.0000 0.36390  0.98900  0.88430  Biso   1.000  H
  C243     1.0000 0.39948  0.05389  0.89937  Biso   1.000  C
  C244     1.0000 0.39749  0.10401  0.89002  Biso   1.000  C
  H231     1.0000 0.42180  0.12470  0.90410  Biso   1.000  H
  C245     1.0000 0.36004  0.12474  0.86009  Biso   1.000  C
  H232     1.0000 0.35910  0.15900  0.85450  Biso   1.000  H
  C246     1.0000 0.43924  0.03296  0.93435  Biso   1.000  C
  C247     1.0000 0.29187  0.15838  0.77866  Biso   1.000  C
  C248     1.0000 0.25575  0.19492  0.77876  Biso   1.000  C
  H233     1.0000 0.22690  0.19070  0.79830  Biso   1.000  H
  N51      1.0000 0.00290  0.00360  0.67740  Biso   1.000  N
  C249     1.0000 0.03540  0.98600  0.63810  Biso   1.000  C
  H234     1.0000 0.06850  0.97640  0.64260  Biso   1.000  H
  N52      1.0000 0.00860  0.98570  0.59070  Biso   1.000  N
  C250     1.0000 0.95950  0.00310  0.60080  Biso   1.000  C
  H235     1.0000 0.93420  0.00660  0.57650  Biso   1.000  H
  C251     1.0000 0.95600  0.01420  0.65430  Biso   1.000  C
  H236     1.0000 0.92790  0.02620  0.67130  Biso   1.000  H
  C252     1.0000 0.03470  0.99350  0.54500  Biso   1.000  C
  C253     1.0000 0.08830  0.98610  0.54500  Biso   1.000  C
  H237     1.0000 0.10300  0.98290  0.57740  Biso   1.000  H
  N53      1.0000 0.43752  0.88538  0.00380  Biso   1.000  N
  N54      1.0000 0.38580  0.80170  0.00270  Biso   1.000  N
  C254     1.0000 0.38560  0.89140  0.01780  Biso   1.000  C
  H238     1.0000 0.38380  0.90370  0.05300  Biso   1.000  H
  H239     1.0000 0.37070  0.91630  0.99540  Biso   1.000  H
  C255     1.0000 0.35600  0.84460  0.01410  Biso   1.000  C
  H240     1.0000 0.33100  0.84850  0.98720  Biso   1.000  H
  H241     1.0000 0.33870  0.83920  0.04650  Biso   1.000  H
  C256     1.0000 0.46360  0.84410  0.98150  Biso   1.000  C
  H242     1.0000 0.46690  0.84980  0.94460  Biso   1.000  H
  H243     1.0000 0.49690  0.84280  0.99600  Biso   1.000  H
  C257     1.0000 0.43870  0.79500  0.99000  Biso   1.000  C
  H244     1.0000 0.45520  0.77740  0.01790  Biso   1.000  H
  H245     1.0000 0.44160  0.77480  0.95890  Biso   1.000  H
  C258     1.0000 0.01030  0.95160  0.97091  Biso   1.000  C
  H246     1.0000 0.05490  0.95170  0.95930  Biso   1.000  H
  C259     1.0000 0.97330  0.95710  0.97060  Biso   1.000  C
  H247     1.0000 0.00460  0.92570  0.95810  Biso   1.000  H
  C260     1.0000 0.42800  0.87040  0.95010  Biso   1.000  C
  H248     1.0000 0.40780  0.89400  0.93090  Biso   1.000  H
  H249     1.0000 0.45600  0.86080  0.93090  Biso   1.000  H
  C261     1.0000 0.39480  0.82210  0.95180  Biso   1.000  C
  H250     1.0000 0.40800  0.79710  0.92870  Biso   1.000  H
  H251     1.0000 0.36080  0.83000  0.93820  Biso   1.000  H
  H252     1.0000 0.00350  0.92540  0.95930  Biso   1.000  H
  N55      1.0000 0.71501  0.88611  0.80789  Biso   1.000  N
  O37      1.0000 0.93272  0.97177  0.76880  Biso   1.000  O
  O38      1.0000 0.93040  0.97752  0.85501  Biso   1.000  O
  O39      1.0000 0.56522  0.01226  0.94700  Biso   1.000  O
  O40      1.0000 0.52675  0.93855  0.94729  Biso   1.000  O
  N56      1.0000 0.99960  0.00400  0.94993  Biso   1.000  N
  C262     1.0000 0.91174  0.96704  0.81168  Biso   1.000  C
  C263     1.0000 0.85963  0.94688  0.81141  Biso   1.000  C
  C264     1.0000 0.83331  0.94042  0.85668  Biso   1.000  C
  H253     1.0000 0.84770  0.94940  0.88800  Biso   1.000  H
  C265     1.0000 0.78556  0.92059  0.85588  Biso   1.000  C
  H254     1.0000 0.76830  0.91580  0.88670  Biso   1.000  H
  C266     1.0000 0.76349  0.90782  0.80924  Biso   1.000  C
  C267     1.0000 0.78949  0.91420  0.76411  Biso   1.000  C
  H255     1.0000 0.77500  0.90540  0.73280  Biso   1.000  H
  C268     1.0000 0.83749  0.93376  0.76500  Biso   1.000  C
  H256     1.0000 0.85490  0.93810  0.73420  Biso   1.000  H
  C269     1.0000 0.67639  0.90625  0.83835  Biso   1.000  C
  C270     1.0000 0.67354  0.95708  0.84702  Biso   1.000  C
  H257     1.0000 0.69680  0.97820  0.83180  Biso   1.000  H
  C271     1.0000 0.63678  0.97690  0.87782  Biso   1.000  C
  H258     1.0000 0.63610  0.01100  0.88430  Biso   1.000  H
  C272     1.0000 0.60052  0.94611  0.89937  Biso   1.000  C
  C273     1.0000 0.60251  0.89599  0.89002  Biso   1.000  C
  H259     1.0000 0.57820  0.87530  0.90410  Biso   1.000  H
  C274     1.0000 0.63996  0.87526  0.86009  Biso   1.000  C
  H260     1.0000 0.64090  0.84100  0.85450  Biso   1.000  H
  C275     1.0000 0.56076  0.96704  0.93435  Biso   1.000  C
  C276     1.0000 0.70813  0.84162  0.77866  Biso   1.000  C
  C277     1.0000 0.74425  0.80508  0.77876  Biso   1.000  C
  H261     1.0000 0.77310  0.80930  0.79830  Biso   1.000  H
  N57      1.0000 0.99710  0.99640  0.67740  Biso   1.000  N
  C278     1.0000 0.96460  0.01400  0.63810  Biso   1.000  C
  H262     1.0000 0.93150  0.02360  0.64260  Biso   1.000  H
  N58      1.0000 0.99140  0.01430  0.59070  Biso   1.000  N
  C279     1.0000 0.04050  0.99690  0.60080  Biso   1.000  C
  H263     1.0000 0.06580  0.99340  0.57650  Biso   1.000  H
  C280     1.0000 0.04400  0.98580  0.65430  Biso   1.000  C
  H264     1.0000 0.07210  0.97380  0.67130  Biso   1.000  H
  C281     1.0000 0.96530  0.00650  0.54500  Biso   1.000  C
  C282     1.0000 0.91170  0.01390  0.54500  Biso   1.000  C
  H265     1.0000 0.89700  0.01710  0.57740  Biso   1.000  H
  N59      1.0000 0.56248  0.11462  0.00380  Biso   1.000  N
  N60      1.0000 0.61420  0.19830  0.00270  Biso   1.000  N
  C283     1.0000 0.61440  0.10860  0.01780  Biso   1.000  C
  H266     1.0000 0.61620  0.09630  0.05300  Biso   1.000  H
  H267     1.0000 0.62930  0.08370  0.99540  Biso   1.000  H
  C284     1.0000 0.64400  0.15540  0.01410  Biso   1.000  C
  H268     1.0000 0.66900  0.15150  0.98720  Biso   1.000  H
  H269     1.0000 0.66130  0.16080  0.04650  Biso   1.000  H
  C285     1.0000 0.53640  0.15590  0.98150  Biso   1.000  C
  H270     1.0000 0.53310  0.15020  0.94460  Biso   1.000  H
  H271     1.0000 0.50310  0.15720  0.99600  Biso   1.000  H
  C286     1.0000 0.56130  0.20500  0.99000  Biso   1.000  C
  H272     1.0000 0.54480  0.22260  0.01790  Biso   1.000  H
  H273     1.0000 0.55840  0.22520  0.95890  Biso   1.000  H
  C287     1.0000 0.98970  0.04840  0.97091  Biso   1.000  C
  H274     1.0000 0.94510  0.04830  0.95930  Biso   1.000  H
  C288     1.0000 0.02670  0.04290  0.97060  Biso   1.000  C
  H275     1.0000 0.99540  0.07430  0.95810  Biso   1.000  H
  C289     1.0000 0.57200  0.12960  0.95010  Biso   1.000  C
  H276     1.0000 0.59220  0.10600  0.93090  Biso   1.000  H
  H277     1.0000 0.54400  0.13920  0.93090  Biso   1.000  H
  C290     1.0000 0.60520  0.17790  0.95180  Biso   1.000  C
  H278     1.0000 0.59200  0.20290  0.92870  Biso   1.000  H
  H279     1.0000 0.63920  0.17000  0.93820  Biso   1.000  H
  H280     1.0000 0.99650  0.07460  0.95930  Biso   1.000  H
  N61      1.0000 0.88611  0.28499  0.80789  Biso   1.000  N
  O41      1.0000 0.97177  0.06728  0.76880  Biso   1.000  O
  O42      1.0000 0.97752  0.06960  0.85501  Biso   1.000  O
  O43      1.0000 0.01226  0.43478  0.94700  Biso   1.000  O
  O44      1.0000 0.93855  0.47325  0.94729  Biso   1.000  O
  N62      1.0000 0.00400  0.00040  0.94993  Biso   1.000  N
  C291     1.0000 0.96704  0.08826  0.81168  Biso   1.000  C
  C292     1.0000 0.94688  0.14037  0.81141  Biso   1.000  C
  C293     1.0000 0.94042  0.16669  0.85668  Biso   1.000  C
  H281     1.0000 0.94940  0.15230  0.88800  Biso   1.000  H
  C294     1.0000 0.92059  0.21444  0.85588  Biso   1.000  C
  H282     1.0000 0.91580  0.23170  0.88670  Biso   1.000  H
  C295     1.0000 0.90782  0.23651  0.80924  Biso   1.000  C
  C296     1.0000 0.91420  0.21051  0.76411  Biso   1.000  C
  H283     1.0000 0.90540  0.22500  0.73280  Biso   1.000  H
  C297     1.0000 0.93376  0.16251  0.76500  Biso   1.000  C
  H284     1.0000 0.93810  0.14510  0.73420  Biso   1.000  H
  C298     1.0000 0.90625  0.32361  0.83835  Biso   1.000  C
  C299     1.0000 0.95708  0.32646  0.84702  Biso   1.000  C
  H285     1.0000 0.97820  0.30320  0.83180  Biso   1.000  H
  C300     1.0000 0.97690  0.36322  0.87782  Biso   1.000  C
  H286     1.0000 0.01100  0.36390  0.88430  Biso   1.000  H
  C301     1.0000 0.94611  0.39948  0.89937  Biso   1.000  C
  C302     1.0000 0.89599  0.39749  0.89002  Biso   1.000  C
  H287     1.0000 0.87530  0.42180  0.90410  Biso   1.000  H
  C303     1.0000 0.87526  0.36004  0.86009  Biso   1.000  C
  H288     1.0000 0.84100  0.35910  0.85450  Biso   1.000  H
  C304     1.0000 0.96704  0.43924  0.93435  Biso   1.000  C
  C305     1.0000 0.84162  0.29187  0.77866  Biso   1.000  C
  C306     1.0000 0.80508  0.25575  0.77876  Biso   1.000  C
  H289     1.0000 0.80930  0.22690  0.79830  Biso   1.000  H
  N63      1.0000 0.99640  0.00290  0.67740  Biso   1.000  N
  C307     1.0000 0.01400  0.03540  0.63810  Biso   1.000  C
  H290     1.0000 0.02360  0.06850  0.64260  Biso   1.000  H
  N64      1.0000 0.01430  0.00860  0.59070  Biso   1.000  N
  C308     1.0000 0.99690  0.95950  0.60080  Biso   1.000  C
  H291     1.0000 0.99340  0.93420  0.57650  Biso   1.000  H
  C309     1.0000 0.98580  0.95600  0.65430  Biso   1.000  C
  H292     1.0000 0.97380  0.92790  0.67130  Biso   1.000  H
  C310     1.0000 0.00650  0.03470  0.54500  Biso   1.000  C
  C311     1.0000 0.01390  0.08830  0.54500  Biso   1.000  C
  H293     1.0000 0.01710  0.10300  0.57740  Biso   1.000  H
  N65      1.0000 0.11462  0.43752  0.00380  Biso   1.000  N
  N66      1.0000 0.19830  0.38580  0.00270  Biso   1.000  N
  C312     1.0000 0.10860  0.38560  0.01780  Biso   1.000  C
  H294     1.0000 0.09630  0.38380  0.05300  Biso   1.000  H
  H295     1.0000 0.08370  0.37070  0.99540  Biso   1.000  H
  C313     1.0000 0.15540  0.35600  0.01410  Biso   1.000  C
  H296     1.0000 0.15150  0.33100  0.98720  Biso   1.000  H
  H297     1.0000 0.16080  0.33870  0.04650  Biso   1.000  H
  C314     1.0000 0.15590  0.46360  0.98150  Biso   1.000  C
  H298     1.0000 0.15020  0.46690  0.94460  Biso   1.000  H
  H299     1.0000 0.15720  0.49690  0.99600  Biso   1.000  H
  C315     1.0000 0.20500  0.43870  0.99000  Biso   1.000  C
  H300     1.0000 0.22260  0.45520  0.01790  Biso   1.000  H
  H301     1.0000 0.22520  0.44160  0.95890  Biso   1.000  H
  C316     1.0000 0.04840  0.01030  0.97091  Biso   1.000  C
  H302     1.0000 0.04830  0.05490  0.95930  Biso   1.000  H
  C317     1.0000 0.04290  0.97330  0.97060  Biso   1.000  C
  H303     1.0000 0.07430  0.00460  0.95810  Biso   1.000  H
  C318     1.0000 0.12960  0.42800  0.95010  Biso   1.000  C
  H304     1.0000 0.10600  0.40780  0.93090  Biso   1.000  H
  H305     1.0000 0.13920  0.45600  0.93090  Biso   1.000  H
  C319     1.0000 0.17790  0.39480  0.95180  Biso   1.000  C
  H306     1.0000 0.20290  0.40800  0.92870  Biso   1.000  H
  H307     1.0000 0.17000  0.36080  0.93820  Biso   1.000  H
  H308     1.0000 0.07460  0.00350  0.95930  Biso   1.000  H
  N67      1.0000 0.11389  0.71501  0.80789  Biso   1.000  N
  O45      1.0000 0.02823  0.93272  0.76880  Biso   1.000  O
  O46      1.0000 0.02248  0.93040  0.85501  Biso   1.000  O
  O47      1.0000 0.98774  0.56522  0.94700  Biso   1.000  O
  O48      1.0000 0.06145  0.52675  0.94729  Biso   1.000  O
  N68      1.0000 0.99600  0.99960  0.94993  Biso   1.000  N
  C320     1.0000 0.03296  0.91174  0.81168  Biso   1.000  C
  C321     1.0000 0.05312  0.85963  0.81141  Biso   1.000  C
  C322     1.0000 0.05958  0.83331  0.85668  Biso   1.000  C
  H309     1.0000 0.05060  0.84770  0.88800  Biso   1.000  H
  C323     1.0000 0.07941  0.78556  0.85588  Biso   1.000  C
  H310     1.0000 0.08420  0.76830  0.88670  Biso   1.000  H
  C324     1.0000 0.09218  0.76349  0.80924  Biso   1.000  C
  C325     1.0000 0.08580  0.78949  0.76411  Biso   1.000  C
  H311     1.0000 0.09460  0.77500  0.73280  Biso   1.000  H
  C326     1.0000 0.06624  0.83749  0.76500  Biso   1.000  C
  H312     1.0000 0.06190  0.85490  0.73420  Biso   1.000  H
  C327     1.0000 0.09375  0.67639  0.83835  Biso   1.000  C
  C328     1.0000 0.04292  0.67354  0.84702  Biso   1.000  C
  H313     1.0000 0.02180  0.69680  0.83180  Biso   1.000  H
  C329     1.0000 0.02310  0.63678  0.87782  Biso   1.000  C
  H314     1.0000 0.98900  0.63610  0.88430  Biso   1.000  H
  C330     1.0000 0.05389  0.60052  0.89937  Biso   1.000  C
  C331     1.0000 0.10401  0.60251  0.89002  Biso   1.000  C
  H315     1.0000 0.12470  0.57820  0.90410  Biso   1.000  H
  C332     1.0000 0.12474  0.63996  0.86009  Biso   1.000  C
  H316     1.0000 0.15900  0.64090  0.85450  Biso   1.000  H
  C333     1.0000 0.03296  0.56076  0.93435  Biso   1.000  C
  C334     1.0000 0.15838  0.70813  0.77866  Biso   1.000  C
  C335     1.0000 0.19492  0.74425  0.77876  Biso   1.000  C
  H317     1.0000 0.19070  0.77310  0.79830  Biso   1.000  H
  N69      1.0000 0.00360  0.99710  0.67740  Biso   1.000  N
  C336     1.0000 0.98600  0.96460  0.63810  Biso   1.000  C
  H318     1.0000 0.97640  0.93150  0.64260  Biso   1.000  H
  N70      1.0000 0.98570  0.99140  0.59070  Biso   1.000  N
  C337     1.0000 0.00310  0.04050  0.60080  Biso   1.000  C
  H319     1.0000 0.00660  0.06580  0.57650  Biso   1.000  H
  C338     1.0000 0.01420  0.04400  0.65430  Biso   1.000  C
  H320     1.0000 0.02620  0.07210  0.67130  Biso   1.000  H
  C339     1.0000 0.99350  0.96530  0.54500  Biso   1.000  C
  C340     1.0000 0.98610  0.91170  0.54500  Biso   1.000  C
  H321     1.0000 0.98290  0.89700  0.57740  Biso   1.000  H
  N71      1.0000 0.88538  0.56248  0.00380  Biso   1.000  N
  N72      1.0000 0.80170  0.61420  0.00270  Biso   1.000  N
  C341     1.0000 0.89140  0.61440  0.01780  Biso   1.000  C
  H322     1.0000 0.90370  0.61620  0.05300  Biso   1.000  H
  H323     1.0000 0.91630  0.62930  0.99540  Biso   1.000  H
  C342     1.0000 0.84460  0.64400  0.01410  Biso   1.000  C
  H324     1.0000 0.84850  0.66900  0.98720  Biso   1.000  H
  H325     1.0000 0.83920  0.66130  0.04650  Biso   1.000  H
  C343     1.0000 0.84410  0.53640  0.98150  Biso   1.000  C
  H326     1.0000 0.84980  0.53310  0.94460  Biso   1.000  H
  H327     1.0000 0.84280  0.50310  0.99600  Biso   1.000  H
  C344     1.0000 0.79500  0.56130  0.99000  Biso   1.000  C
  H328     1.0000 0.77740  0.54480  0.01790  Biso   1.000  H
  H329     1.0000 0.77480  0.55840  0.95890  Biso   1.000  H
  C345     1.0000 0.95160  0.98970  0.97091  Biso   1.000  C
  H330     1.0000 0.95170  0.94510  0.95930  Biso   1.000  H
  C346     1.0000 0.95710  0.02670  0.97060  Biso   1.000  C
  H331     1.0000 0.92570  0.99540  0.95810  Biso   1.000  H
  C347     1.0000 0.87040  0.57200  0.95010  Biso   1.000  C
  H332     1.0000 0.89400  0.59220  0.93090  Biso   1.000  H
  H333     1.0000 0.86080  0.54400  0.93090  Biso   1.000  H
  C348     1.0000 0.82210  0.60520  0.95180  Biso   1.000  C
  H334     1.0000 0.79710  0.59200  0.92870  Biso   1.000  H
  H335     1.0000 0.83000  0.63920  0.93820  Biso   1.000  H
  H336     1.0000 0.92540  0.99650  0.95930  Biso   1.000  H
  N73      1.0000 0.21501  0.61389  0.69211  Biso   1.000  N
  O49      1.0000 0.43272  0.52823  0.73120  Biso   1.000  O
  O50      1.0000 0.43040  0.52248  0.64499  Biso   1.000  O
  O51      1.0000 0.06522  0.48774  0.55300  Biso   1.000  O
  O52      1.0000 0.02675  0.56145  0.55271  Biso   1.000  O
  N74      1.0000 0.49960  0.49600  0.55007  Biso   1.000  N
  C349     1.0000 0.41174  0.53296  0.68832  Biso   1.000  C
  C350     1.0000 0.35963  0.55312  0.68859  Biso   1.000  C
  C351     1.0000 0.33331  0.55958  0.64332  Biso   1.000  C
  H337     1.0000 0.34770  0.55060  0.61200  Biso   1.000  H
  C352     1.0000 0.28556  0.57941  0.64412  Biso   1.000  C
  H338     1.0000 0.26830  0.58420  0.61330  Biso   1.000  H
  C353     1.0000 0.26349  0.59218  0.69076  Biso   1.000  C
  C354     1.0000 0.28949  0.58580  0.73589  Biso   1.000  C
  H339     1.0000 0.27500  0.59460  0.76720  Biso   1.000  H
  C355     1.0000 0.33749  0.56624  0.73500  Biso   1.000  C
  H340     1.0000 0.35490  0.56190  0.76580  Biso   1.000  H
  C356     1.0000 0.17639  0.59375  0.66165  Biso   1.000  C
  C357     1.0000 0.17354  0.54292  0.65298  Biso   1.000  C
  H341     1.0000 0.19680  0.52180  0.66820  Biso   1.000  H
  C358     1.0000 0.13678  0.52310  0.62218  Biso   1.000  C
  H342     1.0000 0.13610  0.48900  0.61570  Biso   1.000  H
  C359     1.0000 0.10052  0.55389  0.60063  Biso   1.000  C
  C360     1.0000 0.10251  0.60401  0.60998  Biso   1.000  C
  H343     1.0000 0.07820  0.62470  0.59590  Biso   1.000  H
  C361     1.0000 0.13996  0.62474  0.63991  Biso   1.000  C
  H344     1.0000 0.14090  0.65900  0.64550  Biso   1.000  H
  C362     1.0000 0.06076  0.53296  0.56565  Biso   1.000  C
  C363     1.0000 0.20813  0.65838  0.72134  Biso   1.000  C
  C364     1.0000 0.24425  0.69492  0.72124  Biso   1.000  C
  H345     1.0000 0.27310  0.69070  0.70170  Biso   1.000  H
  N75      1.0000 0.49710  0.50360  0.82260  Biso   1.000  N
  C365     1.0000 0.46460  0.48600  0.86190  Biso   1.000  C
  H346     1.0000 0.43150  0.47640  0.85740  Biso   1.000  H
  N76      1.0000 0.49140  0.48570  0.90930  Biso   1.000  N
  C366     1.0000 0.54050  0.50310  0.89920  Biso   1.000  C
  H347     1.0000 0.56580  0.50660  0.92350  Biso   1.000  H
  C367     1.0000 0.54400  0.51420  0.84570  Biso   1.000  C
  H348     1.0000 0.57210  0.52620  0.82870  Biso   1.000  H
  C368     1.0000 0.46530  0.49350  0.95500  Biso   1.000  C
  C369     1.0000 0.41170  0.48610  0.95500  Biso   1.000  C
  H349     1.0000 0.39700  0.48290  0.92260  Biso   1.000  H
  N77      1.0000 0.06248  0.38538  0.49620  Biso   1.000  N
  N78      1.0000 0.11420  0.30170  0.49730  Biso   1.000  N
  C370     1.0000 0.11440  0.39140  0.48220  Biso   1.000  C
  H350     1.0000 0.11620  0.40370  0.44700  Biso   1.000  H
  H351     1.0000 0.12930  0.41630  0.50460  Biso   1.000  H
  C371     1.0000 0.14400  0.34460  0.48590  Biso   1.000  C
  H352     1.0000 0.16900  0.34850  0.51280  Biso   1.000  H
  H353     1.0000 0.16130  0.33920  0.45350  Biso   1.000  H
  C372     1.0000 0.03640  0.34410  0.51850  Biso   1.000  C
  H354     1.0000 0.03310  0.34980  0.55540  Biso   1.000  H
  H355     1.0000 0.00310  0.34280  0.50400  Biso   1.000  H
  C373     1.0000 0.06130  0.29500  0.51000  Biso   1.000  C
  H356     1.0000 0.04480  0.27740  0.48210  Biso   1.000  H
  H357     1.0000 0.05840  0.27480  0.54110  Biso   1.000  H
  C374     1.0000 0.48970  0.45160  0.52909  Biso   1.000  C
  H358     1.0000 0.44510  0.45170  0.54070  Biso   1.000  H
  C375     1.0000 0.52670  0.45710  0.52940  Biso   1.000  C
  H359     1.0000 0.49540  0.42570  0.54190  Biso   1.000  H
  C376     1.0000 0.07200  0.37040  0.54990  Biso   1.000  C
  H360     1.0000 0.09220  0.39400  0.56910  Biso   1.000  H
  H361     1.0000 0.04400  0.36080  0.56910  Biso   1.000  H
  C377     1.0000 0.10520  0.32210  0.54820  Biso   1.000  C
  H362     1.0000 0.09200  0.29710  0.57130  Biso   1.000  H
  H363     1.0000 0.13920  0.33000  0.56180  Biso   1.000  H
  H364     1.0000 0.49650  0.42540  0.54070  Biso   1.000  H
  N79      1.0000 0.78499  0.38611  0.69211  Biso   1.000  N
  O53      1.0000 0.56728  0.47177  0.73120  Biso   1.000  O
  O54      1.0000 0.56960  0.47752  0.64499  Biso   1.000  O
  O55      1.0000 0.93478  0.51226  0.55300  Biso   1.000  O
  O56      1.0000 0.97325  0.43855  0.55271  Biso   1.000  O
  N80      1.0000 0.50040  0.50400  0.55007  Biso   1.000  N
  C378     1.0000 0.58826  0.46704  0.68832  Biso   1.000  C
  C379     1.0000 0.64037  0.44688  0.68859  Biso   1.000  C
  C380     1.0000 0.66669  0.44042  0.64332  Biso   1.000  C
  H365     1.0000 0.65230  0.44940  0.61200  Biso   1.000  H
  C381     1.0000 0.71444  0.42059  0.64412  Biso   1.000  C
  H366     1.0000 0.73170  0.41580  0.61330  Biso   1.000  H
  C382     1.0000 0.73651  0.40782  0.69076  Biso   1.000  C
  C383     1.0000 0.71051  0.41420  0.73589  Biso   1.000  C
  H367     1.0000 0.72500  0.40540  0.76720  Biso   1.000  H
  C384     1.0000 0.66251  0.43376  0.73500  Biso   1.000  C
  H368     1.0000 0.64510  0.43810  0.76580  Biso   1.000  H
  C385     1.0000 0.82361  0.40625  0.66165  Biso   1.000  C
  C386     1.0000 0.82646  0.45708  0.65298  Biso   1.000  C
  H369     1.0000 0.80320  0.47820  0.66820  Biso   1.000  H
  C387     1.0000 0.86322  0.47690  0.62218  Biso   1.000  C
  H370     1.0000 0.86390  0.51100  0.61570  Biso   1.000  H
  C388     1.0000 0.89948  0.44611  0.60063  Biso   1.000  C
  C389     1.0000 0.89749  0.39599  0.60998  Biso   1.000  C
  H371     1.0000 0.92180  0.37530  0.59590  Biso   1.000  H
  C390     1.0000 0.86004  0.37526  0.63991  Biso   1.000  C
  H372     1.0000 0.85910  0.34100  0.64550  Biso   1.000  H
  C391     1.0000 0.93924  0.46704  0.56565  Biso   1.000  C
  C392     1.0000 0.79187  0.34162  0.72134  Biso   1.000  C
  C393     1.0000 0.75575  0.30508  0.72124  Biso   1.000  C
  H373     1.0000 0.72690  0.30930  0.70170  Biso   1.000  H
  N81      1.0000 0.50290  0.49640  0.82260  Biso   1.000  N
  C394     1.0000 0.53540  0.51400  0.86190  Biso   1.000  C
  H374     1.0000 0.56850  0.52360  0.85740  Biso   1.000  H
  N82      1.0000 0.50860  0.51430  0.90930  Biso   1.000  N
  C395     1.0000 0.45950  0.49690  0.89920  Biso   1.000  C
  H375     1.0000 0.43420  0.49340  0.92350  Biso   1.000  H
  C396     1.0000 0.45600  0.48580  0.84570  Biso   1.000  C
  H376     1.0000 0.42790  0.47380  0.82870  Biso   1.000  H
  C397     1.0000 0.53470  0.50650  0.95500  Biso   1.000  C
  C398     1.0000 0.58830  0.51390  0.95500  Biso   1.000  C
  H377     1.0000 0.60300  0.51710  0.92260  Biso   1.000  H
  N83      1.0000 0.93752  0.61462  0.49620  Biso   1.000  N
  N84      1.0000 0.88580  0.69830  0.49730  Biso   1.000  N
  C399     1.0000 0.88560  0.60860  0.48220  Biso   1.000  C
  H378     1.0000 0.88380  0.59630  0.44700  Biso   1.000  H
  H379     1.0000 0.87070  0.58370  0.50460  Biso   1.000  H
  C400     1.0000 0.85600  0.65540  0.48590  Biso   1.000  C
  H380     1.0000 0.83100  0.65150  0.51280  Biso   1.000  H
  H381     1.0000 0.83870  0.66080  0.45350  Biso   1.000  H
  C401     1.0000 0.96360  0.65590  0.51850  Biso   1.000  C
  H382     1.0000 0.96690  0.65020  0.55540  Biso   1.000  H
  H383     1.0000 0.99690  0.65720  0.50400  Biso   1.000  H
  C402     1.0000 0.93870  0.70500  0.51000  Biso   1.000  C
  H384     1.0000 0.95520  0.72260  0.48210  Biso   1.000  H
  H385     1.0000 0.94160  0.72520  0.54110  Biso   1.000  H
  C403     1.0000 0.51030  0.54840  0.52909  Biso   1.000  C
  H386     1.0000 0.55490  0.54830  0.54070  Biso   1.000  H
  C404     1.0000 0.47330  0.54290  0.52940  Biso   1.000  C
  H387     1.0000 0.50460  0.57430  0.54190  Biso   1.000  H
  C405     1.0000 0.92800  0.62960  0.54990  Biso   1.000  C
  H388     1.0000 0.90780  0.60600  0.56910  Biso   1.000  H
  H389     1.0000 0.95600  0.63920  0.56910  Biso   1.000  H
  C406     1.0000 0.89480  0.67790  0.54820  Biso   1.000  C
  H390     1.0000 0.90800  0.70290  0.57130  Biso   1.000  H
  H391     1.0000 0.86080  0.67000  0.56180  Biso   1.000  H
  H392     1.0000 0.50350  0.57460  0.54070  Biso   1.000  H
  N85      1.0000 0.61389  0.78499  0.69211  Biso   1.000  N
  O57      1.0000 0.52823  0.56728  0.73120  Biso   1.000  O
  O58      1.0000 0.52248  0.56960  0.64499  Biso   1.000  O
  O59      1.0000 0.48774  0.93478  0.55300  Biso   1.000  O
  O60      1.0000 0.56145  0.97325  0.55271  Biso   1.000  O
  N86      1.0000 0.49600  0.50040  0.55007  Biso   1.000  N
  C407     1.0000 0.53296  0.58826  0.68832  Biso   1.000  C
  C408     1.0000 0.55312  0.64037  0.68859  Biso   1.000  C
  C409     1.0000 0.55958  0.66669  0.64332  Biso   1.000  C
  H393     1.0000 0.55060  0.65230  0.61200  Biso   1.000  H
  C410     1.0000 0.57941  0.71444  0.64412  Biso   1.000  C
  H394     1.0000 0.58420  0.73170  0.61330  Biso   1.000  H
  C411     1.0000 0.59218  0.73651  0.69076  Biso   1.000  C
  C412     1.0000 0.58580  0.71051  0.73589  Biso   1.000  C
  H395     1.0000 0.59460  0.72500  0.76720  Biso   1.000  H
  C413     1.0000 0.56624  0.66251  0.73500  Biso   1.000  C
  H396     1.0000 0.56190  0.64510  0.76580  Biso   1.000  H
  C414     1.0000 0.59375  0.82361  0.66165  Biso   1.000  C
  C415     1.0000 0.54292  0.82646  0.65298  Biso   1.000  C
  H397     1.0000 0.52180  0.80320  0.66820  Biso   1.000  H
  C416     1.0000 0.52310  0.86322  0.62218  Biso   1.000  C
  H398     1.0000 0.48900  0.86390  0.61570  Biso   1.000  H
  C417     1.0000 0.55389  0.89948  0.60063  Biso   1.000  C
  C418     1.0000 0.60401  0.89749  0.60998  Biso   1.000  C
  H399     1.0000 0.62470  0.92180  0.59590  Biso   1.000  H
  C419     1.0000 0.62474  0.86004  0.63991  Biso   1.000  C
  H400     1.0000 0.65900  0.85910  0.64550  Biso   1.000  H
  C420     1.0000 0.53296  0.93924  0.56565  Biso   1.000  C
  C421     1.0000 0.65838  0.79187  0.72134  Biso   1.000  C
  C422     1.0000 0.69492  0.75575  0.72124  Biso   1.000  C
  H401     1.0000 0.69070  0.72690  0.70170  Biso   1.000  H
  N87      1.0000 0.50360  0.50290  0.82260  Biso   1.000  N
  C423     1.0000 0.48600  0.53540  0.86190  Biso   1.000  C
  H402     1.0000 0.47640  0.56850  0.85740  Biso   1.000  H
  N88      1.0000 0.48570  0.50860  0.90930  Biso   1.000  N
  C424     1.0000 0.50310  0.45950  0.89920  Biso   1.000  C
  H403     1.0000 0.50660  0.43420  0.92350  Biso   1.000  H
  C425     1.0000 0.51420  0.45600  0.84570  Biso   1.000  C
  H404     1.0000 0.52620  0.42790  0.82870  Biso   1.000  H
  C426     1.0000 0.49350  0.53470  0.95500  Biso   1.000  C
  C427     1.0000 0.48610  0.58830  0.95500  Biso   1.000  C
  H405     1.0000 0.48290  0.60300  0.92260  Biso   1.000  H
  N89      1.0000 0.38538  0.93752  0.49620  Biso   1.000  N
  N90      1.0000 0.30170  0.88580  0.49730  Biso   1.000  N
  C428     1.0000 0.39140  0.88560  0.48220  Biso   1.000  C
  H406     1.0000 0.40370  0.88380  0.44700  Biso   1.000  H
  H407     1.0000 0.41630  0.87070  0.50460  Biso   1.000  H
  C429     1.0000 0.34460  0.85600  0.48590  Biso   1.000  C
  H408     1.0000 0.34850  0.83100  0.51280  Biso   1.000  H
  H409     1.0000 0.33920  0.83870  0.45350  Biso   1.000  H
  C430     1.0000 0.34410  0.96360  0.51850  Biso   1.000  C
  H410     1.0000 0.34980  0.96690  0.55540  Biso   1.000  H
  H411     1.0000 0.34280  0.99690  0.50400  Biso   1.000  H
  C431     1.0000 0.29500  0.93870  0.51000  Biso   1.000  C
  H412     1.0000 0.27740  0.95520  0.48210  Biso   1.000  H
  H413     1.0000 0.27480  0.94160  0.54110  Biso   1.000  H
  C432     1.0000 0.45160  0.51030  0.52909  Biso   1.000  C
  H414     1.0000 0.45170  0.55490  0.54070  Biso   1.000  H
  C433     1.0000 0.45710  0.47330  0.52940  Biso   1.000  C
  H415     1.0000 0.42570  0.50460  0.54190  Biso   1.000  H
  C434     1.0000 0.37040  0.92800  0.54990  Biso   1.000  C
  H416     1.0000 0.39400  0.90780  0.56910  Biso   1.000  H
  H417     1.0000 0.36080  0.95600  0.56910  Biso   1.000  H
  C435     1.0000 0.32210  0.89480  0.54820  Biso   1.000  C
  H418     1.0000 0.29710  0.90800  0.57130  Biso   1.000  H
  H419     1.0000 0.33000  0.86080  0.56180  Biso   1.000  H
  H420     1.0000 0.42540  0.50350  0.54070  Biso   1.000  H
  N91      1.0000 0.38611  0.21501  0.69211  Biso   1.000  N
  O61      1.0000 0.47177  0.43272  0.73120  Biso   1.000  O
  O62      1.0000 0.47752  0.43040  0.64499  Biso   1.000  O
  O63      1.0000 0.51226  0.06522  0.55300  Biso   1.000  O
  O64      1.0000 0.43855  0.02675  0.55271  Biso   1.000  O
  N92      1.0000 0.50400  0.49960  0.55007  Biso   1.000  N
  C436     1.0000 0.46704  0.41174  0.68832  Biso   1.000  C
  C437     1.0000 0.44688  0.35963  0.68859  Biso   1.000  C
  C438     1.0000 0.44042  0.33331  0.64332  Biso   1.000  C
  H421     1.0000 0.44940  0.34770  0.61200  Biso   1.000  H
  C439     1.0000 0.42059  0.28556  0.64412  Biso   1.000  C
  H422     1.0000 0.41580  0.26830  0.61330  Biso   1.000  H
  C440     1.0000 0.40782  0.26349  0.69076  Biso   1.000  C
  C441     1.0000 0.41420  0.28949  0.73589  Biso   1.000  C
  H423     1.0000 0.40540  0.27500  0.76720  Biso   1.000  H
  C442     1.0000 0.43376  0.33749  0.73500  Biso   1.000  C
  H424     1.0000 0.43810  0.35490  0.76580  Biso   1.000  H
  C443     1.0000 0.40625  0.17639  0.66165  Biso   1.000  C
  C444     1.0000 0.45708  0.17354  0.65298  Biso   1.000  C
  H425     1.0000 0.47820  0.19680  0.66820  Biso   1.000  H
  C445     1.0000 0.47690  0.13678  0.62218  Biso   1.000  C
  H426     1.0000 0.51100  0.13610  0.61570  Biso   1.000  H
  C446     1.0000 0.44611  0.10052  0.60063  Biso   1.000  C
  C447     1.0000 0.39599  0.10251  0.60998  Biso   1.000  C
  H427     1.0000 0.37530  0.07820  0.59590  Biso   1.000  H
  C448     1.0000 0.37526  0.13996  0.63991  Biso   1.000  C
  H428     1.0000 0.34100  0.14090  0.64550  Biso   1.000  H
  C449     1.0000 0.46704  0.06076  0.56565  Biso   1.000  C
  C450     1.0000 0.34162  0.20813  0.72134  Biso   1.000  C
  C451     1.0000 0.30508  0.24425  0.72124  Biso   1.000  C
  H429     1.0000 0.30930  0.27310  0.70170  Biso   1.000  H
  N93      1.0000 0.49640  0.49710  0.82260  Biso   1.000  N
  C452     1.0000 0.51400  0.46460  0.86190  Biso   1.000  C
  H430     1.0000 0.52360  0.43150  0.85740  Biso   1.000  H
  N94      1.0000 0.51430  0.49140  0.90930  Biso   1.000  N
  C453     1.0000 0.49690  0.54050  0.89920  Biso   1.000  C
  H431     1.0000 0.49340  0.56580  0.92350  Biso   1.000  H
  C454     1.0000 0.48580  0.54400  0.84570  Biso   1.000  C
  H432     1.0000 0.47380  0.57210  0.82870  Biso   1.000  H
  C455     1.0000 0.50650  0.46530  0.95500  Biso   1.000  C
  C456     1.0000 0.51390  0.41170  0.95500  Biso   1.000  C
  H433     1.0000 0.51710  0.39700  0.92260  Biso   1.000  H
  N95      1.0000 0.61462  0.06248  0.49620  Biso   1.000  N
  N96      1.0000 0.69830  0.11420  0.49730  Biso   1.000  N
  C457     1.0000 0.60860  0.11440  0.48220  Biso   1.000  C
  H434     1.0000 0.59630  0.11620  0.44700  Biso   1.000  H
  H435     1.0000 0.58370  0.12930  0.50460  Biso   1.000  H
  C458     1.0000 0.65540  0.14400  0.48590  Biso   1.000  C
  H436     1.0000 0.65150  0.16900  0.51280  Biso   1.000  H
  H437     1.0000 0.66080  0.16130  0.45350  Biso   1.000  H
  C459     1.0000 0.65590  0.03640  0.51850  Biso   1.000  C
  H438     1.0000 0.65020  0.03310  0.55540  Biso   1.000  H
  H439     1.0000 0.65720  0.00310  0.50400  Biso   1.000  H
  C460     1.0000 0.70500  0.06130  0.51000  Biso   1.000  C
  H440     1.0000 0.72260  0.04480  0.48210  Biso   1.000  H
  H441     1.0000 0.72520  0.05840  0.54110  Biso   1.000  H
  C461     1.0000 0.54840  0.48970  0.52909  Biso   1.000  C
  H442     1.0000 0.54830  0.44510  0.54070  Biso   1.000  H
  C462     1.0000 0.54290  0.52670  0.52940  Biso   1.000  C
  H443     1.0000 0.57430  0.49540  0.54190  Biso   1.000  H
  C463     1.0000 0.62960  0.07200  0.54990  Biso   1.000  C
  H444     1.0000 0.60600  0.09220  0.56910  Biso   1.000  H
  H445     1.0000 0.63920  0.04400  0.56910  Biso   1.000  H
  C464     1.0000 0.67790  0.10520  0.54820  Biso   1.000  C
  H446     1.0000 0.70290  0.09200  0.57130  Biso   1.000  H
  H447     1.0000 0.67000  0.13920  0.56180  Biso   1.000  H
  H448     1.0000 0.57460  0.49650  0.54070  Biso   1.000  H
  Cu1      1.0000 0.00000  0.00000  0.13624  Biso   1.000  Cu
  Cu2      1.0000 0.00000  0.00000  0.24012  Biso   1.000  Cu
  Cu3      1.0000 0.50000  0.50000  0.36376  Biso   1.000  Cu
  Cu4      1.0000 0.50000  0.50000  0.25988  Biso   1.000  Cu
  Cu5      1.0000 0.00000  0.00000  0.86376  Biso   1.000  Cu
  Cu6      1.0000 0.00000  0.00000  0.75988  Biso   1.000  Cu
  Cu7      1.0000 0.50000  0.50000  0.63624  Biso   1.000  Cu
  Cu8      1.0000 0.50000  0.50000  0.74012  Biso   1.000  Cu
  Cu9      1.0000 0.52315  0.04378  0.00000  Biso   1.000  Cu
  Cu10     1.0000 0.47685  0.95622  0.00000  Biso   1.000  Cu
  Cu11     1.0000 0.95622  0.52315  0.00000  Biso   1.000  Cu
  Cu12     1.0000 0.04378  0.47685  0.00000  Biso   1.000  Cu
  Cu13     1.0000 0.97685  0.54378  0.50000  Biso   1.000  Cu
  Cu14     1.0000 0.02315  0.45622  0.50000  Biso   1.000  Cu
  Cu15     1.0000 0.54378  0.02315  0.50000  Biso   1.000  Cu
  Cu16     1.0000 0.45622  0.97685  0.50000  Biso   1.000  Cu
  C465     1.0000 0.66526  0.83474  0.25000  Biso   1.000  C
  H449     1.0000 0.64070  0.85930  0.25000  Biso   1.000  H
  C466     1.0000 0.73778  0.76222  0.25000  Biso   1.000  C
  H450     1.0000 0.76230  0.73770  0.25000  Biso   1.000  H
  C467     1.0000 0.33474  0.16526  0.25000  Biso   1.000  C
  H451     1.0000 0.35930  0.14070  0.25000  Biso   1.000  H
  C468     1.0000 0.26222  0.23778  0.25000  Biso   1.000  C
  H452     1.0000 0.23770  0.26230  0.25000  Biso   1.000  H
  C469     1.0000 0.16526  0.66526  0.25000  Biso   1.000  C
  H453     1.0000 0.14070  0.64070  0.25000  Biso   1.000  H
  C470     1.0000 0.23778  0.73778  0.25000  Biso   1.000  C
  H454     1.0000 0.26230  0.76230  0.25000  Biso   1.000  H
  C471     1.0000 0.83474  0.33474  0.25000  Biso   1.000  C
  H455     1.0000 0.85930  0.35930  0.25000  Biso   1.000  H
  C472     1.0000 0.76222  0.26222  0.25000  Biso   1.000  C
  H456     1.0000 0.73770  0.23770  0.25000  Biso   1.000  H
  C473     1.0000 0.33474  0.16526  0.75000  Biso   1.000  C
  H457     1.0000 0.35930  0.14070  0.75000  Biso   1.000  H
  C474     1.0000 0.26222  0.23778  0.75000  Biso   1.000  C
  H458     1.0000 0.23770  0.26230  0.75000  Biso   1.000  H
  C475     1.0000 0.66526  0.83474  0.75000  Biso   1.000  C
  H459     1.0000 0.64070  0.85930  0.75000  Biso   1.000  H
  C476     1.0000 0.73778  0.76222  0.75000  Biso   1.000  C
  H460     1.0000 0.76230  0.73770  0.75000  Biso   1.000  H
  C477     1.0000 0.83474  0.33474  0.75000  Biso   1.000  C
  H461     1.0000 0.85930  0.35930  0.75000  Biso   1.000  H
  C478     1.0000 0.76222  0.26222  0.75000  Biso   1.000  C
  H462     1.0000 0.73770  0.23770  0.75000  Biso   1.000  H
  C479     1.0000 0.16526  0.66526  0.75000  Biso   1.000  C
  H463     1.0000 0.14070  0.64070  0.75000  Biso   1.000  H
  C480     1.0000 0.23778  0.73778  0.75000  Biso   1.000  C
  H464     1.0000 0.26230  0.76230  0.75000  Biso   1.000  H
  C481     1.0000 0.99990  0.00170  0.50000  Biso   1.000  C
  H465     1.0000 0.03880  0.00730  0.50000  Biso   1.000  H
  C482     1.0000 0.87700  0.01700  0.50000  Biso   1.000  C
  H466     1.0000 0.84110  0.99270  0.50000  Biso   1.000  H
  C483     1.0000 0.00010  0.99830  0.50000  Biso   1.000  C
  H467     1.0000 0.96120  0.99270  0.50000  Biso   1.000  H
  C484     1.0000 0.12300  0.98300  0.50000  Biso   1.000  C
  H468     1.0000 0.15890  0.00730  0.50000  Biso   1.000  H
  C485     1.0000 0.99830  0.99990  0.50000  Biso   1.000  C
  H469     1.0000 0.99270  0.03880  0.50000  Biso   1.000  H
  C486     1.0000 0.98300  0.87700  0.50000  Biso   1.000  C
  H470     1.0000 0.00730  0.84110  0.50000  Biso   1.000  H
  C487     1.0000 0.00170  0.00010  0.50000  Biso   1.000  C
  H471     1.0000 0.00730  0.96120  0.50000  Biso   1.000  H
  C488     1.0000 0.01700  0.12300  0.50000  Biso   1.000  C
  H472     1.0000 0.99270  0.15890  0.50000  Biso   1.000  H
  C489     1.0000 0.50010  0.50170  0.00000  Biso   1.000  C
  H473     1.0000 0.46120  0.50730  0.00000  Biso   1.000  H
  C490     1.0000 0.62300  0.51700  0.00000  Biso   1.000  C
  H474     1.0000 0.65890  0.49270  0.00000  Biso   1.000  H
  C491     1.0000 0.49990  0.49830  0.00000  Biso   1.000  C
  H475     1.0000 0.53880  0.49270  0.00000  Biso   1.000  H
  C492     1.0000 0.37700  0.48300  0.00000  Biso   1.000  C
  H476     1.0000 0.34110  0.50730  0.00000  Biso   1.000  H
  C493     1.0000 0.50170  0.49990  0.00000  Biso   1.000  C
  H477     1.0000 0.50730  0.53880  0.00000  Biso   1.000  H
  C494     1.0000 0.51700  0.37700  0.00000  Biso   1.000  C
  H478     1.0000 0.49270  0.34110  0.00000  Biso   1.000  H
  C495     1.0000 0.49830  0.50010  0.00000  Biso   1.000  C
  H479     1.0000 0.49270  0.46120  0.00000  Biso   1.000  H
  C496     1.0000 0.48300  0.62300  0.00000  Biso   1.000  C
  H480     1.0000 0.50730  0.65890  0.00000  Biso   1.000  H
