data_image0
_cell_length_a       26.7
_cell_length_b       26.7
_cell_length_c       26.72
_cell_angle_alpha    90
_cell_angle_beta     90
_cell_angle_gamma    90

_symmetry_space_group_name_H-M    "P 1"
_symmetry_int_tables_number       1

loop_
  _symmetry_equiv_pos_as_xyz
  'x, y, z'

loop_
  _atom_site_label
  _atom_site_occupancy
  _atom_site_fract_x
  _atom_site_fract_y
  _atom_site_fract_z
  _atom_site_thermal_displace_type
  _atom_site_B_iso_or_equiv
  _atom_site_type_symbol
  N1       1.0000 0.71110  0.89267  0.19566  Biso   1.000  N
  O1       1.0000 0.93090  0.97499  0.24042  Biso   1.000  O
  O2       1.0000 0.92942  0.98141  0.15649  Biso   1.000  O
  O3       1.0000 0.56556  0.01475  0.05181  Biso   1.000  O
  O4       1.0000 0.52840  0.93887  0.05125  Biso   1.000  O
  O5       1.0000 0.01310  0.98630  0.07170  Biso   1.000  O
  C1       1.0000 0.90977  0.97141  0.19837  Biso   1.000  C
  C2       1.0000 0.85694  0.95300  0.19782  Biso   1.000  C
  C3       1.0000 0.83164  0.94726  0.15312  Biso   1.000  C
  H1       1.0000 0.84700  0.95610  0.12320  Biso   1.000  H
  C4       1.0000 0.78288  0.92814  0.15283  Biso   1.000  C
  H2       1.0000 0.76590  0.92450  0.12270  Biso   1.000  H
  C5       1.0000 0.76010  0.91485  0.19633  Biso   1.000  C
  C6       1.0000 0.78491  0.92064  0.24112  Biso   1.000  C
  H3       1.0000 0.76930  0.91150  0.27090  Biso   1.000  H
  C7       1.0000 0.83287  0.93994  0.24200  Biso   1.000  C
  H4       1.0000 0.84920  0.94420  0.27240  Biso   1.000  H
  C8       1.0000 0.67397  0.91192  0.16429  Biso   1.000  C
  C9       1.0000 0.67050  0.96264  0.15423  Biso   1.000  C
  H5       1.0000 0.69370  0.98430  0.16870  Biso   1.000  H
  C10      1.0000 0.63431  0.98199  0.12387  Biso   1.000  C
  H6       1.0000 0.63260  0.01640  0.11850  Biso   1.000  H
  C11      1.0000 0.59955  0.94987  0.10073  Biso   1.000  C
  C12      1.0000 0.60210  0.89942  0.11170  Biso   1.000  C
  H7       1.0000 0.57830  0.87790  0.09810  Biso   1.000  H
  C13      1.0000 0.63901  0.87994  0.14225  Biso   1.000  C
  H8       1.0000 0.64060  0.84560  0.14810  Biso   1.000  H
  C14      1.0000 0.56136  0.96972  0.06532  Biso   1.000  C
  C15      1.0000 0.70315  0.84824  0.22343  Biso   1.000  C
  C16      1.0000 0.74018  0.81095  0.22466  Biso   1.000  C
  H9       1.0000 0.77030  0.81600  0.20800  Biso   1.000  H
  N2       1.0000 0.00680  0.00090  0.32820  Biso   1.000  N
  C17      1.0000 0.96710  0.00290  0.36350  Biso   1.000  C
  H10      1.0000 0.93330  0.99800  0.35650  Biso   1.000  H
  N3       1.0000 0.98790  0.01360  0.41113  Biso   1.000  N
  C18      1.0000 0.04060  0.01820  0.40540  Biso   1.000  C
  H11      1.0000 0.06350  0.02520  0.43070  Biso   1.000  H
  C19      1.0000 0.05230  0.01040  0.35410  Biso   1.000  C
  H12      1.0000 0.08410  0.01130  0.34000  Biso   1.000  H
  C20      1.0000 0.96080  0.01200  0.45560  Biso   1.000  C
  C21      1.0000 0.90950  0.01850  0.45510  Biso   1.000  C
  H13      1.0000 0.89270  0.02490  0.42540  Biso   1.000  H
  N4       1.0000 0.28890  0.10733  0.19566  Biso   1.000  N
  O6       1.0000 0.06910  0.02501  0.24042  Biso   1.000  O
  O7       1.0000 0.07058  0.01859  0.15649  Biso   1.000  O
  O8       1.0000 0.43444  0.98525  0.05181  Biso   1.000  O
  O9       1.0000 0.47160  0.06113  0.05125  Biso   1.000  O
  O10      1.0000 0.98690  0.01370  0.07170  Biso   1.000  O
  C22      1.0000 0.09023  0.02859  0.19837  Biso   1.000  C
  C23      1.0000 0.14306  0.04700  0.19782  Biso   1.000  C
  C24      1.0000 0.16836  0.05274  0.15312  Biso   1.000  C
  H14      1.0000 0.15300  0.04390  0.12320  Biso   1.000  H
  C25      1.0000 0.21712  0.07186  0.15283  Biso   1.000  C
  H15      1.0000 0.23410  0.07550  0.12270  Biso   1.000  H
  C26      1.0000 0.23990  0.08515  0.19633  Biso   1.000  C
  C27      1.0000 0.21509  0.07936  0.24112  Biso   1.000  C
  H16      1.0000 0.23070  0.08850  0.27090  Biso   1.000  H
  C28      1.0000 0.16713  0.06006  0.24200  Biso   1.000  C
  H17      1.0000 0.15080  0.05580  0.27240  Biso   1.000  H
  C29      1.0000 0.32603  0.08808  0.16429  Biso   1.000  C
  C30      1.0000 0.32950  0.03736  0.15423  Biso   1.000  C
  H18      1.0000 0.30630  0.01570  0.16870  Biso   1.000  H
  C31      1.0000 0.36569  0.01801  0.12387  Biso   1.000  C
  H19      1.0000 0.36740  0.98360  0.11850  Biso   1.000  H
  C32      1.0000 0.40045  0.05013  0.10073  Biso   1.000  C
  C33      1.0000 0.39790  0.10058  0.11170  Biso   1.000  C
  H20      1.0000 0.42170  0.12210  0.09810  Biso   1.000  H
  C34      1.0000 0.36099  0.12006  0.14225  Biso   1.000  C
  H21      1.0000 0.35940  0.15440  0.14810  Biso   1.000  H
  C35      1.0000 0.43864  0.03028  0.06532  Biso   1.000  C
  C36      1.0000 0.29685  0.15176  0.22343  Biso   1.000  C
  C37      1.0000 0.25982  0.18905  0.22466  Biso   1.000  C
  H22      1.0000 0.22970  0.18400  0.20800  Biso   1.000  H
  N5       1.0000 0.99320  0.99910  0.32820  Biso   1.000  N
  C38      1.0000 0.03290  0.99710  0.36350  Biso   1.000  C
  H23      1.0000 0.06670  0.00200  0.35650  Biso   1.000  H
  N6       1.0000 0.01210  0.98640  0.41113  Biso   1.000  N
  C39      1.0000 0.95940  0.98180  0.40540  Biso   1.000  C
  H24      1.0000 0.93650  0.97480  0.43070  Biso   1.000  H
  C40      1.0000 0.94770  0.98960  0.35410  Biso   1.000  C
  H25      1.0000 0.91590  0.98870  0.34000  Biso   1.000  H
  C41      1.0000 0.03920  0.98800  0.45560  Biso   1.000  C
  C42      1.0000 0.09050  0.98150  0.45510  Biso   1.000  C
  H26      1.0000 0.10730  0.97510  0.42540  Biso   1.000  H
  N7       1.0000 0.10733  0.71110  0.19566  Biso   1.000  N
  O11      1.0000 0.02501  0.93090  0.24042  Biso   1.000  O
  O12      1.0000 0.01859  0.92942  0.15649  Biso   1.000  O
  O13      1.0000 0.98525  0.56556  0.05181  Biso   1.000  O
  O14      1.0000 0.06113  0.52840  0.05125  Biso   1.000  O
  O15      1.0000 0.01370  0.01310  0.07170  Biso   1.000  O
  C43      1.0000 0.02859  0.90977  0.19837  Biso   1.000  C
  C44      1.0000 0.04700  0.85694  0.19782  Biso   1.000  C
  C45      1.0000 0.05274  0.83164  0.15312  Biso   1.000  C
  H27      1.0000 0.04390  0.84700  0.12320  Biso   1.000  H
  C46      1.0000 0.07186  0.78288  0.15283  Biso   1.000  C
  H28      1.0000 0.07550  0.76590  0.12270  Biso   1.000  H
  C47      1.0000 0.08515  0.76010  0.19633  Biso   1.000  C
  C48      1.0000 0.07936  0.78491  0.24112  Biso   1.000  C
  H29      1.0000 0.08850  0.76930  0.27090  Biso   1.000  H
  C49      1.0000 0.06006  0.83287  0.24200  Biso   1.000  C
  H30      1.0000 0.05580  0.84920  0.27240  Biso   1.000  H
  C50      1.0000 0.08808  0.67397  0.16429  Biso   1.000  C
  C51      1.0000 0.03736  0.67050  0.15423  Biso   1.000  C
  H31      1.0000 0.01570  0.69370  0.16870  Biso   1.000  H
  C52      1.0000 0.01801  0.63431  0.12387  Biso   1.000  C
  H32      1.0000 0.98360  0.63260  0.11850  Biso   1.000  H
  C53      1.0000 0.05013  0.59955  0.10073  Biso   1.000  C
  C54      1.0000 0.10058  0.60210  0.11170  Biso   1.000  C
  H33      1.0000 0.12210  0.57830  0.09810  Biso   1.000  H
  C55      1.0000 0.12006  0.63901  0.14225  Biso   1.000  C
  H34      1.0000 0.15440  0.64060  0.14810  Biso   1.000  H
  C56      1.0000 0.03028  0.56136  0.06532  Biso   1.000  C
  C57      1.0000 0.15176  0.70315  0.22343  Biso   1.000  C
  C58      1.0000 0.18905  0.74018  0.22466  Biso   1.000  C
  H35      1.0000 0.18400  0.77030  0.20800  Biso   1.000  H
  N8       1.0000 0.99910  0.00680  0.32820  Biso   1.000  N
  C59      1.0000 0.99710  0.96710  0.36350  Biso   1.000  C
  H36      1.0000 0.00200  0.93330  0.35650  Biso   1.000  H
  N9       1.0000 0.98640  0.98790  0.41113  Biso   1.000  N
  C60      1.0000 0.98180  0.04060  0.40540  Biso   1.000  C
  H37      1.0000 0.97480  0.06350  0.43070  Biso   1.000  H
  C61      1.0000 0.98960  0.05230  0.35410  Biso   1.000  C
  H38      1.0000 0.98870  0.08410  0.34000  Biso   1.000  H
  C62      1.0000 0.98800  0.96080  0.45560  Biso   1.000  C
  C63      1.0000 0.98150  0.90950  0.45510  Biso   1.000  C
  H39      1.0000 0.97510  0.89270  0.42540  Biso   1.000  H
  N10      1.0000 0.89267  0.28890  0.19566  Biso   1.000  N
  O16      1.0000 0.97499  0.06910  0.24042  Biso   1.000  O
  O17      1.0000 0.98141  0.07058  0.15649  Biso   1.000  O
  O18      1.0000 0.01475  0.43444  0.05181  Biso   1.000  O
  O19      1.0000 0.93887  0.47160  0.05125  Biso   1.000  O
  O20      1.0000 0.98630  0.98690  0.07170  Biso   1.000  O
  C64      1.0000 0.97141  0.09023  0.19837  Biso   1.000  C
  C65      1.0000 0.95300  0.14306  0.19782  Biso   1.000  C
  C66      1.0000 0.94726  0.16836  0.15312  Biso   1.000  C
  H40      1.0000 0.95610  0.15300  0.12320  Biso   1.000  H
  C67      1.0000 0.92814  0.21712  0.15283  Biso   1.000  C
  H41      1.0000 0.92450  0.23410  0.12270  Biso   1.000  H
  C68      1.0000 0.91485  0.23990  0.19633  Biso   1.000  C
  C69      1.0000 0.92064  0.21509  0.24112  Biso   1.000  C
  H42      1.0000 0.91150  0.23070  0.27090  Biso   1.000  H
  C70      1.0000 0.93994  0.16713  0.24200  Biso   1.000  C
  H43      1.0000 0.94420  0.15080  0.27240  Biso   1.000  H
  C71      1.0000 0.91192  0.32603  0.16429  Biso   1.000  C
  C72      1.0000 0.96264  0.32950  0.15423  Biso   1.000  C
  H44      1.0000 0.98430  0.30630  0.16870  Biso   1.000  H
  C73      1.0000 0.98199  0.36569  0.12387  Biso   1.000  C
  H45      1.0000 0.01640  0.36740  0.11850  Biso   1.000  H
  C74      1.0000 0.94987  0.40045  0.10073  Biso   1.000  C
  C75      1.0000 0.89942  0.39790  0.11170  Biso   1.000  C
  H46      1.0000 0.87790  0.42170  0.09810  Biso   1.000  H
  C76      1.0000 0.87994  0.36099  0.14225  Biso   1.000  C
  H47      1.0000 0.84560  0.35940  0.14810  Biso   1.000  H
  C77      1.0000 0.96972  0.43864  0.06532  Biso   1.000  C
  C78      1.0000 0.84824  0.29685  0.22343  Biso   1.000  C
  C79      1.0000 0.81095  0.25982  0.22466  Biso   1.000  C
  H48      1.0000 0.81600  0.22970  0.20800  Biso   1.000  H
  N11      1.0000 0.00090  0.99320  0.32820  Biso   1.000  N
  C80      1.0000 0.00290  0.03290  0.36350  Biso   1.000  C
  H49      1.0000 0.99800  0.06670  0.35650  Biso   1.000  H
  N12      1.0000 0.01360  0.01210  0.41113  Biso   1.000  N
  C81      1.0000 0.01820  0.95940  0.40540  Biso   1.000  C
  H50      1.0000 0.02520  0.93650  0.43070  Biso   1.000  H
  C82      1.0000 0.01040  0.94770  0.35410  Biso   1.000  C
  H51      1.0000 0.01130  0.91590  0.34000  Biso   1.000  H
  C83      1.0000 0.01200  0.03920  0.45560  Biso   1.000  C
  C84      1.0000 0.01850  0.09050  0.45510  Biso   1.000  C
  H52      1.0000 0.02490  0.10730  0.42540  Biso   1.000  H
  N13      1.0000 0.78890  0.39267  0.30434  Biso   1.000  N
  O21      1.0000 0.56910  0.47499  0.25958  Biso   1.000  O
  O22      1.0000 0.57058  0.48141  0.34351  Biso   1.000  O
  O23      1.0000 0.93444  0.51475  0.44819  Biso   1.000  O
  O24      1.0000 0.97160  0.43887  0.44875  Biso   1.000  O
  O25      1.0000 0.48690  0.48630  0.42830  Biso   1.000  O
  C85      1.0000 0.59023  0.47141  0.30163  Biso   1.000  C
  C86      1.0000 0.64306  0.45300  0.30218  Biso   1.000  C
  C87      1.0000 0.66836  0.44726  0.34688  Biso   1.000  C
  H53      1.0000 0.65300  0.45610  0.37680  Biso   1.000  H
  C88      1.0000 0.71712  0.42814  0.34717  Biso   1.000  C
  H54      1.0000 0.73410  0.42450  0.37730  Biso   1.000  H
  C89      1.0000 0.73990  0.41485  0.30367  Biso   1.000  C
  C90      1.0000 0.71509  0.42064  0.25888  Biso   1.000  C
  H55      1.0000 0.73070  0.41150  0.22910  Biso   1.000  H
  C91      1.0000 0.66713  0.43994  0.25800  Biso   1.000  C
  H56      1.0000 0.65080  0.44420  0.22760  Biso   1.000  H
  C92      1.0000 0.82603  0.41192  0.33571  Biso   1.000  C
  C93      1.0000 0.82950  0.46264  0.34577  Biso   1.000  C
  H57      1.0000 0.80630  0.48430  0.33130  Biso   1.000  H
  C94      1.0000 0.86569  0.48199  0.37613  Biso   1.000  C
  H58      1.0000 0.86740  0.51640  0.38150  Biso   1.000  H
  C95      1.0000 0.90045  0.44987  0.39927  Biso   1.000  C
  C96      1.0000 0.89790  0.39942  0.38830  Biso   1.000  C
  H59      1.0000 0.92170  0.37790  0.40190  Biso   1.000  H
  C97      1.0000 0.86099  0.37994  0.35775  Biso   1.000  C
  H60      1.0000 0.85940  0.34560  0.35190  Biso   1.000  H
  C98      1.0000 0.93864  0.46972  0.43468  Biso   1.000  C
  C99      1.0000 0.79685  0.34824  0.27657  Biso   1.000  C
  C100     1.0000 0.75982  0.31095  0.27534  Biso   1.000  C
  H61      1.0000 0.72970  0.31600  0.29200  Biso   1.000  H
  N14      1.0000 0.49320  0.50090  0.17180  Biso   1.000  N
  C101     1.0000 0.53290  0.50290  0.13650  Biso   1.000  C
  H62      1.0000 0.56670  0.49800  0.14350  Biso   1.000  H
  N15      1.0000 0.51210  0.51360  0.08887  Biso   1.000  N
  C102     1.0000 0.45940  0.51820  0.09460  Biso   1.000  C
  H63      1.0000 0.43650  0.52520  0.06930  Biso   1.000  H
  C103     1.0000 0.44770  0.51040  0.14590  Biso   1.000  C
  H64      1.0000 0.41590  0.51130  0.16000  Biso   1.000  H
  C104     1.0000 0.53920  0.51200  0.04440  Biso   1.000  C
  C105     1.0000 0.59050  0.51850  0.04490  Biso   1.000  C
  H65      1.0000 0.60730  0.52490  0.07460  Biso   1.000  H
  N16      1.0000 0.21110  0.60733  0.30434  Biso   1.000  N
  O26      1.0000 0.43090  0.52501  0.25958  Biso   1.000  O
  O27      1.0000 0.42942  0.51859  0.34351  Biso   1.000  O
  O28      1.0000 0.06556  0.48525  0.44819  Biso   1.000  O
  O29      1.0000 0.02840  0.56113  0.44875  Biso   1.000  O
  O30      1.0000 0.51310  0.51370  0.42830  Biso   1.000  O
  C106     1.0000 0.40977  0.52859  0.30163  Biso   1.000  C
  C107     1.0000 0.35694  0.54700  0.30218  Biso   1.000  C
  C108     1.0000 0.33164  0.55274  0.34688  Biso   1.000  C
  H66      1.0000 0.34700  0.54390  0.37680  Biso   1.000  H
  C109     1.0000 0.28288  0.57186  0.34717  Biso   1.000  C
  H67      1.0000 0.26590  0.57550  0.37730  Biso   1.000  H
  C110     1.0000 0.26010  0.58515  0.30367  Biso   1.000  C
  C111     1.0000 0.28491  0.57936  0.25888  Biso   1.000  C
  H68      1.0000 0.26930  0.58850  0.22910  Biso   1.000  H
  C112     1.0000 0.33287  0.56006  0.25800  Biso   1.000  C
  H69      1.0000 0.34920  0.55580  0.22760  Biso   1.000  H
  C113     1.0000 0.17397  0.58808  0.33571  Biso   1.000  C
  C114     1.0000 0.17050  0.53736  0.34577  Biso   1.000  C
  H70      1.0000 0.19370  0.51570  0.33130  Biso   1.000  H
  C115     1.0000 0.13431  0.51801  0.37613  Biso   1.000  C
  H71      1.0000 0.13260  0.48360  0.38150  Biso   1.000  H
  C116     1.0000 0.09955  0.55013  0.39927  Biso   1.000  C
  C117     1.0000 0.10210  0.60058  0.38830  Biso   1.000  C
  H72      1.0000 0.07830  0.62210  0.40190  Biso   1.000  H
  C118     1.0000 0.13901  0.62006  0.35775  Biso   1.000  C
  H73      1.0000 0.14060  0.65440  0.35190  Biso   1.000  H
  C119     1.0000 0.06136  0.53028  0.43468  Biso   1.000  C
  C120     1.0000 0.20315  0.65176  0.27657  Biso   1.000  C
  C121     1.0000 0.24018  0.68905  0.27534  Biso   1.000  C
  H74      1.0000 0.27030  0.68400  0.29200  Biso   1.000  H
  N17      1.0000 0.50680  0.49910  0.17180  Biso   1.000  N
  C122     1.0000 0.46710  0.49710  0.13650  Biso   1.000  C
  H75      1.0000 0.43330  0.50200  0.14350  Biso   1.000  H
  N18      1.0000 0.48790  0.48640  0.08887  Biso   1.000  N
  C123     1.0000 0.54060  0.48180  0.09460  Biso   1.000  C
  H76      1.0000 0.56350  0.47480  0.06930  Biso   1.000  H
  C124     1.0000 0.55230  0.48960  0.14590  Biso   1.000  C
  H77      1.0000 0.58410  0.48870  0.16000  Biso   1.000  H
  C125     1.0000 0.46080  0.48800  0.04440  Biso   1.000  C
  C126     1.0000 0.40950  0.48150  0.04490  Biso   1.000  C
  H78      1.0000 0.39270  0.47510  0.07460  Biso   1.000  H
  N19      1.0000 0.39267  0.21110  0.30434  Biso   1.000  N
  O31      1.0000 0.47499  0.43090  0.25958  Biso   1.000  O
  O32      1.0000 0.48141  0.42942  0.34351  Biso   1.000  O
  O33      1.0000 0.51475  0.06556  0.44819  Biso   1.000  O
  O34      1.0000 0.43887  0.02840  0.44875  Biso   1.000  O
  O35      1.0000 0.48630  0.51310  0.42830  Biso   1.000  O
  C127     1.0000 0.47141  0.40977  0.30163  Biso   1.000  C
  C128     1.0000 0.45300  0.35694  0.30218  Biso   1.000  C
  C129     1.0000 0.44726  0.33164  0.34688  Biso   1.000  C
  H79      1.0000 0.45610  0.34700  0.37680  Biso   1.000  H
  C130     1.0000 0.42814  0.28288  0.34717  Biso   1.000  C
  H80      1.0000 0.42450  0.26590  0.37730  Biso   1.000  H
  C131     1.0000 0.41485  0.26010  0.30367  Biso   1.000  C
  C132     1.0000 0.42064  0.28491  0.25888  Biso   1.000  C
  H81      1.0000 0.41150  0.26930  0.22910  Biso   1.000  H
  C133     1.0000 0.43994  0.33287  0.25800  Biso   1.000  C
  H82      1.0000 0.44420  0.34920  0.22760  Biso   1.000  H
  C134     1.0000 0.41192  0.17397  0.33571  Biso   1.000  C
  C135     1.0000 0.46264  0.17050  0.34577  Biso   1.000  C
  H83      1.0000 0.48430  0.19370  0.33130  Biso   1.000  H
  C136     1.0000 0.48199  0.13431  0.37613  Biso   1.000  C
  H84      1.0000 0.51640  0.13260  0.38150  Biso   1.000  H
  C137     1.0000 0.44987  0.09955  0.39927  Biso   1.000  C
  C138     1.0000 0.39942  0.10210  0.38830  Biso   1.000  C
  H85      1.0000 0.37790  0.07830  0.40190  Biso   1.000  H
  C139     1.0000 0.37994  0.13901  0.35775  Biso   1.000  C
  H86      1.0000 0.34560  0.14060  0.35190  Biso   1.000  H
  C140     1.0000 0.46972  0.06136  0.43468  Biso   1.000  C
  C141     1.0000 0.34824  0.20315  0.27657  Biso   1.000  C
  C142     1.0000 0.31095  0.24018  0.27534  Biso   1.000  C
  H87      1.0000 0.31600  0.27030  0.29200  Biso   1.000  H
  N20      1.0000 0.50090  0.50680  0.17180  Biso   1.000  N
  C143     1.0000 0.50290  0.46710  0.13650  Biso   1.000  C
  H88      1.0000 0.49800  0.43330  0.14350  Biso   1.000  H
  N21      1.0000 0.51360  0.48790  0.08887  Biso   1.000  N
  C144     1.0000 0.51820  0.54060  0.09460  Biso   1.000  C
  H89      1.0000 0.52520  0.56350  0.06930  Biso   1.000  H
  C145     1.0000 0.51040  0.55230  0.14590  Biso   1.000  C
  H90      1.0000 0.51130  0.58410  0.16000  Biso   1.000  H
  C146     1.0000 0.51200  0.46080  0.04440  Biso   1.000  C
  C147     1.0000 0.51850  0.40950  0.04490  Biso   1.000  C
  H91      1.0000 0.52490  0.39270  0.07460  Biso   1.000  H
  N22      1.0000 0.60733  0.78890  0.30434  Biso   1.000  N
  O36      1.0000 0.52501  0.56910  0.25958  Biso   1.000  O
  O37      1.0000 0.51859  0.57058  0.34351  Biso   1.000  O
  O38      1.0000 0.48525  0.93444  0.44819  Biso   1.000  O
  O39      1.0000 0.56113  0.97160  0.44875  Biso   1.000  O
  O40      1.0000 0.51370  0.48690  0.42830  Biso   1.000  O
  C148     1.0000 0.52859  0.59023  0.30163  Biso   1.000  C
  C149     1.0000 0.54700  0.64306  0.30218  Biso   1.000  C
  C150     1.0000 0.55274  0.66836  0.34688  Biso   1.000  C
  H92      1.0000 0.54390  0.65300  0.37680  Biso   1.000  H
  C151     1.0000 0.57186  0.71712  0.34717  Biso   1.000  C
  H93      1.0000 0.57550  0.73410  0.37730  Biso   1.000  H
  C152     1.0000 0.58515  0.73990  0.30367  Biso   1.000  C
  C153     1.0000 0.57936  0.71509  0.25888  Biso   1.000  C
  H94      1.0000 0.58850  0.73070  0.22910  Biso   1.000  H
  C154     1.0000 0.56006  0.66713  0.25800  Biso   1.000  C
  H95      1.0000 0.55580  0.65080  0.22760  Biso   1.000  H
  C155     1.0000 0.58808  0.82603  0.33571  Biso   1.000  C
  C156     1.0000 0.53736  0.82950  0.34577  Biso   1.000  C
  H96      1.0000 0.51570  0.80630  0.33130  Biso   1.000  H
  C157     1.0000 0.51801  0.86569  0.37613  Biso   1.000  C
  H97      1.0000 0.48360  0.86740  0.38150  Biso   1.000  H
  C158     1.0000 0.55013  0.90045  0.39927  Biso   1.000  C
  C159     1.0000 0.60058  0.89790  0.38830  Biso   1.000  C
  H98      1.0000 0.62210  0.92170  0.40190  Biso   1.000  H
  C160     1.0000 0.62006  0.86099  0.35775  Biso   1.000  C
  H99      1.0000 0.65440  0.85940  0.35190  Biso   1.000  H
  C161     1.0000 0.53028  0.93864  0.43468  Biso   1.000  C
  C162     1.0000 0.65176  0.79685  0.27657  Biso   1.000  C
  C163     1.0000 0.68905  0.75982  0.27534  Biso   1.000  C
  H100     1.0000 0.68400  0.72970  0.29200  Biso   1.000  H
  N23      1.0000 0.49910  0.49320  0.17180  Biso   1.000  N
  C164     1.0000 0.49710  0.53290  0.13650  Biso   1.000  C
  H101     1.0000 0.50200  0.56670  0.14350  Biso   1.000  H
  N24      1.0000 0.48640  0.51210  0.08887  Biso   1.000  N
  C165     1.0000 0.48180  0.45940  0.09460  Biso   1.000  C
  H102     1.0000 0.47480  0.43650  0.06930  Biso   1.000  H
  C166     1.0000 0.48960  0.44770  0.14590  Biso   1.000  C
  H103     1.0000 0.48870  0.41590  0.16000  Biso   1.000  H
  C167     1.0000 0.48800  0.53920  0.04440  Biso   1.000  C
  C168     1.0000 0.48150  0.59050  0.04490  Biso   1.000  C
  H104     1.0000 0.47510  0.60730  0.07460  Biso   1.000  H
  N25      1.0000 0.28890  0.10733  0.80434  Biso   1.000  N
  O41      1.0000 0.06910  0.02501  0.75958  Biso   1.000  O
  O42      1.0000 0.07058  0.01859  0.84351  Biso   1.000  O
  O43      1.0000 0.43444  0.98525  0.94819  Biso   1.000  O
  O44      1.0000 0.47160  0.06113  0.94875  Biso   1.000  O
  O45      1.0000 0.98690  0.01370  0.92830  Biso   1.000  O
  C169     1.0000 0.09023  0.02859  0.80163  Biso   1.000  C
  C170     1.0000 0.14306  0.04700  0.80218  Biso   1.000  C
  C171     1.0000 0.16836  0.05274  0.84688  Biso   1.000  C
  H105     1.0000 0.15300  0.04390  0.87680  Biso   1.000  H
  C172     1.0000 0.21712  0.07186  0.84717  Biso   1.000  C
  H106     1.0000 0.23410  0.07550  0.87730  Biso   1.000  H
  C173     1.0000 0.23990  0.08515  0.80367  Biso   1.000  C
  C174     1.0000 0.21509  0.07936  0.75888  Biso   1.000  C
  H107     1.0000 0.23070  0.08850  0.72910  Biso   1.000  H
  C175     1.0000 0.16713  0.06006  0.75800  Biso   1.000  C
  H108     1.0000 0.15080  0.05580  0.72760  Biso   1.000  H
  C176     1.0000 0.32603  0.08808  0.83571  Biso   1.000  C
  C177     1.0000 0.32950  0.03736  0.84577  Biso   1.000  C
  H109     1.0000 0.30630  0.01570  0.83130  Biso   1.000  H
  C178     1.0000 0.36569  0.01801  0.87613  Biso   1.000  C
  H110     1.0000 0.36740  0.98360  0.88150  Biso   1.000  H
  C179     1.0000 0.40045  0.05013  0.89927  Biso   1.000  C
  C180     1.0000 0.39790  0.10058  0.88830  Biso   1.000  C
  H111     1.0000 0.42170  0.12210  0.90190  Biso   1.000  H
  C181     1.0000 0.36099  0.12006  0.85775  Biso   1.000  C
  H112     1.0000 0.35940  0.15440  0.85190  Biso   1.000  H
  C182     1.0000 0.43864  0.03028  0.93468  Biso   1.000  C
  C183     1.0000 0.29685  0.15176  0.77657  Biso   1.000  C
  C184     1.0000 0.25982  0.18905  0.77534  Biso   1.000  C
  H113     1.0000 0.22970  0.18400  0.79200  Biso   1.000  H
  N26      1.0000 0.99320  0.99910  0.67180  Biso   1.000  N
  C185     1.0000 0.03290  0.99710  0.63650  Biso   1.000  C
  H114     1.0000 0.06670  0.00200  0.64350  Biso   1.000  H
  N27      1.0000 0.01210  0.98640  0.58887  Biso   1.000  N
  C186     1.0000 0.95940  0.98180  0.59460  Biso   1.000  C
  H115     1.0000 0.93650  0.97480  0.56930  Biso   1.000  H
  C187     1.0000 0.94770  0.98960  0.64590  Biso   1.000  C
  H116     1.0000 0.91590  0.98870  0.66000  Biso   1.000  H
  C188     1.0000 0.03920  0.98800  0.54440  Biso   1.000  C
  C189     1.0000 0.09050  0.98150  0.54490  Biso   1.000  C
  H117     1.0000 0.10730  0.97510  0.57460  Biso   1.000  H
  N28      1.0000 0.71110  0.89267  0.80434  Biso   1.000  N
  O46      1.0000 0.93090  0.97499  0.75958  Biso   1.000  O
  O47      1.0000 0.92942  0.98141  0.84351  Biso   1.000  O
  O48      1.0000 0.56556  0.01475  0.94819  Biso   1.000  O
  O49      1.0000 0.52840  0.93887  0.94875  Biso   1.000  O
  O50      1.0000 0.01310  0.98630  0.92830  Biso   1.000  O
  C190     1.0000 0.90977  0.97141  0.80163  Biso   1.000  C
  C191     1.0000 0.85694  0.95300  0.80218  Biso   1.000  C
  C192     1.0000 0.83164  0.94726  0.84688  Biso   1.000  C
  H118     1.0000 0.84700  0.95610  0.87680  Biso   1.000  H
  C193     1.0000 0.78288  0.92814  0.84717  Biso   1.000  C
  H119     1.0000 0.76590  0.92450  0.87730  Biso   1.000  H
  C194     1.0000 0.76010  0.91485  0.80367  Biso   1.000  C
  C195     1.0000 0.78491  0.92064  0.75888  Biso   1.000  C
  H120     1.0000 0.76930  0.91150  0.72910  Biso   1.000  H
  C196     1.0000 0.83287  0.93994  0.75800  Biso   1.000  C
  H121     1.0000 0.84920  0.94420  0.72760  Biso   1.000  H
  C197     1.0000 0.67397  0.91192  0.83571  Biso   1.000  C
  C198     1.0000 0.67050  0.96264  0.84577  Biso   1.000  C
  H122     1.0000 0.69370  0.98430  0.83130  Biso   1.000  H
  C199     1.0000 0.63431  0.98199  0.87613  Biso   1.000  C
  H123     1.0000 0.63260  0.01640  0.88150  Biso   1.000  H
  C200     1.0000 0.59955  0.94987  0.89927  Biso   1.000  C
  C201     1.0000 0.60210  0.89942  0.88830  Biso   1.000  C
  H124     1.0000 0.57830  0.87790  0.90190  Biso   1.000  H
  C202     1.0000 0.63901  0.87994  0.85775  Biso   1.000  C
  H125     1.0000 0.64060  0.84560  0.85190  Biso   1.000  H
  C203     1.0000 0.56136  0.96972  0.93468  Biso   1.000  C
  C204     1.0000 0.70315  0.84824  0.77657  Biso   1.000  C
  C205     1.0000 0.74018  0.81095  0.77534  Biso   1.000  C
  H126     1.0000 0.77030  0.81600  0.79200  Biso   1.000  H
  N29      1.0000 0.00680  0.00090  0.67180  Biso   1.000  N
  C206     1.0000 0.96710  0.00290  0.63650  Biso   1.000  C
  H127     1.0000 0.93330  0.99800  0.64350  Biso   1.000  H
  N30      1.0000 0.98790  0.01360  0.58887  Biso   1.000  N
  C207     1.0000 0.04060  0.01820  0.59460  Biso   1.000  C
  H128     1.0000 0.06350  0.02520  0.56930  Biso   1.000  H
  C208     1.0000 0.05230  0.01040  0.64590  Biso   1.000  C
  H129     1.0000 0.08410  0.01130  0.66000  Biso   1.000  H
  C209     1.0000 0.96080  0.01200  0.54440  Biso   1.000  C
  C210     1.0000 0.90950  0.01850  0.54490  Biso   1.000  C
  H130     1.0000 0.89270  0.02490  0.57460  Biso   1.000  H
  N31      1.0000 0.89267  0.28890  0.80434  Biso   1.000  N
  O51      1.0000 0.97499  0.06910  0.75958  Biso   1.000  O
  O52      1.0000 0.98141  0.07058  0.84351  Biso   1.000  O
  O53      1.0000 0.01475  0.43444  0.94819  Biso   1.000  O
  O54      1.0000 0.93887  0.47160  0.94875  Biso   1.000  O
  O55      1.0000 0.98630  0.98690  0.92830  Biso   1.000  O
  C211     1.0000 0.97141  0.09023  0.80163  Biso   1.000  C
  C212     1.0000 0.95300  0.14306  0.80218  Biso   1.000  C
  C213     1.0000 0.94726  0.16836  0.84688  Biso   1.000  C
  H131     1.0000 0.95610  0.15300  0.87680  Biso   1.000  H
  C214     1.0000 0.92814  0.21712  0.84717  Biso   1.000  C
  H132     1.0000 0.92450  0.23410  0.87730  Biso   1.000  H
  C215     1.0000 0.91485  0.23990  0.80367  Biso   1.000  C
  C216     1.0000 0.92064  0.21509  0.75888  Biso   1.000  C
  H133     1.0000 0.91150  0.23070  0.72910  Biso   1.000  H
  C217     1.0000 0.93994  0.16713  0.75800  Biso   1.000  C
  H134     1.0000 0.94420  0.15080  0.72760  Biso   1.000  H
  C218     1.0000 0.91192  0.32603  0.83571  Biso   1.000  C
  C219     1.0000 0.96264  0.32950  0.84577  Biso   1.000  C
  H135     1.0000 0.98430  0.30630  0.83130  Biso   1.000  H
  C220     1.0000 0.98199  0.36569  0.87613  Biso   1.000  C
  H136     1.0000 0.01640  0.36740  0.88150  Biso   1.000  H
  C221     1.0000 0.94987  0.40045  0.89927  Biso   1.000  C
  C222     1.0000 0.89942  0.39790  0.88830  Biso   1.000  C
  H137     1.0000 0.87790  0.42170  0.90190  Biso   1.000  H
  C223     1.0000 0.87994  0.36099  0.85775  Biso   1.000  C
  H138     1.0000 0.84560  0.35940  0.85190  Biso   1.000  H
  C224     1.0000 0.96972  0.43864  0.93468  Biso   1.000  C
  C225     1.0000 0.84824  0.29685  0.77657  Biso   1.000  C
  C226     1.0000 0.81095  0.25982  0.77534  Biso   1.000  C
  H139     1.0000 0.81600  0.22970  0.79200  Biso   1.000  H
  N32      1.0000 0.00090  0.99320  0.67180  Biso   1.000  N
  C227     1.0000 0.00290  0.03290  0.63650  Biso   1.000  C
  H140     1.0000 0.99800  0.06670  0.64350  Biso   1.000  H
  N33      1.0000 0.01360  0.01210  0.58887  Biso   1.000  N
  C228     1.0000 0.01820  0.95940  0.59460  Biso   1.000  C
  H141     1.0000 0.02520  0.93650  0.56930  Biso   1.000  H
  C229     1.0000 0.01040  0.94770  0.64590  Biso   1.000  C
  H142     1.0000 0.01130  0.91590  0.66000  Biso   1.000  H
  C230     1.0000 0.01200  0.03920  0.54440  Biso   1.000  C
  C231     1.0000 0.01850  0.09050  0.54490  Biso   1.000  C
  H143     1.0000 0.02490  0.10730  0.57460  Biso   1.000  H
  N34      1.0000 0.10733  0.71110  0.80434  Biso   1.000  N
  O56      1.0000 0.02501  0.93090  0.75958  Biso   1.000  O
  O57      1.0000 0.01859  0.92942  0.84351  Biso   1.000  O
  O58      1.0000 0.98525  0.56556  0.94819  Biso   1.000  O
  O59      1.0000 0.06113  0.52840  0.94875  Biso   1.000  O
  O60      1.0000 0.01370  0.01310  0.92830  Biso   1.000  O
  C232     1.0000 0.02859  0.90977  0.80163  Biso   1.000  C
  C233     1.0000 0.04700  0.85694  0.80218  Biso   1.000  C
  C234     1.0000 0.05274  0.83164  0.84688  Biso   1.000  C
  H144     1.0000 0.04390  0.84700  0.87680  Biso   1.000  H
  C235     1.0000 0.07186  0.78288  0.84717  Biso   1.000  C
  H145     1.0000 0.07550  0.76590  0.87730  Biso   1.000  H
  C236     1.0000 0.08515  0.76010  0.80367  Biso   1.000  C
  C237     1.0000 0.07936  0.78491  0.75888  Biso   1.000  C
  H146     1.0000 0.08850  0.76930  0.72910  Biso   1.000  H
  C238     1.0000 0.06006  0.83287  0.75800  Biso   1.000  C
  H147     1.0000 0.05580  0.84920  0.72760  Biso   1.000  H
  C239     1.0000 0.08808  0.67397  0.83571  Biso   1.000  C
  C240     1.0000 0.03736  0.67050  0.84577  Biso   1.000  C
  H148     1.0000 0.01570  0.69370  0.83130  Biso   1.000  H
  C241     1.0000 0.01801  0.63431  0.87613  Biso   1.000  C
  H149     1.0000 0.98360  0.63260  0.88150  Biso   1.000  H
  C242     1.0000 0.05013  0.59955  0.89927  Biso   1.000  C
  C243     1.0000 0.10058  0.60210  0.88830  Biso   1.000  C
  H150     1.0000 0.12210  0.57830  0.90190  Biso   1.000  H
  C244     1.0000 0.12006  0.63901  0.85775  Biso   1.000  C
  H151     1.0000 0.15440  0.64060  0.85190  Biso   1.000  H
  C245     1.0000 0.03028  0.56136  0.93468  Biso   1.000  C
  C246     1.0000 0.15176  0.70315  0.77657  Biso   1.000  C
  C247     1.0000 0.18905  0.74018  0.77534  Biso   1.000  C
  H152     1.0000 0.18400  0.77030  0.79200  Biso   1.000  H
  N35      1.0000 0.99910  0.00680  0.67180  Biso   1.000  N
  C248     1.0000 0.99710  0.96710  0.63650  Biso   1.000  C
  H153     1.0000 0.00200  0.93330  0.64350  Biso   1.000  H
  N36      1.0000 0.98640  0.98790  0.58887  Biso   1.000  N
  C249     1.0000 0.98180  0.04060  0.59460  Biso   1.000  C
  H154     1.0000 0.97480  0.06350  0.56930  Biso   1.000  H
  C250     1.0000 0.98960  0.05230  0.64590  Biso   1.000  C
  H155     1.0000 0.98870  0.08410  0.66000  Biso   1.000  H
  C251     1.0000 0.98800  0.96080  0.54440  Biso   1.000  C
  C252     1.0000 0.98150  0.90950  0.54490  Biso   1.000  C
  H156     1.0000 0.97510  0.89270  0.57460  Biso   1.000  H
  N37      1.0000 0.21110  0.60733  0.69566  Biso   1.000  N
  O61      1.0000 0.43090  0.52501  0.74042  Biso   1.000  O
  O62      1.0000 0.42942  0.51859  0.65649  Biso   1.000  O
  O63      1.0000 0.06556  0.48525  0.55181  Biso   1.000  O
  O64      1.0000 0.02840  0.56113  0.55125  Biso   1.000  O
  O65      1.0000 0.51310  0.51370  0.57170  Biso   1.000  O
  C253     1.0000 0.40977  0.52859  0.69837  Biso   1.000  C
  C254     1.0000 0.35694  0.54700  0.69782  Biso   1.000  C
  C255     1.0000 0.33164  0.55274  0.65312  Biso   1.000  C
  H157     1.0000 0.34700  0.54390  0.62320  Biso   1.000  H
  C256     1.0000 0.28288  0.57186  0.65283  Biso   1.000  C
  H158     1.0000 0.26590  0.57550  0.62270  Biso   1.000  H
  C257     1.0000 0.26010  0.58515  0.69633  Biso   1.000  C
  C258     1.0000 0.28491  0.57936  0.74112  Biso   1.000  C
  H159     1.0000 0.26930  0.58850  0.77090  Biso   1.000  H
  C259     1.0000 0.33287  0.56006  0.74200  Biso   1.000  C
  H160     1.0000 0.34920  0.55580  0.77240  Biso   1.000  H
  C260     1.0000 0.17397  0.58808  0.66429  Biso   1.000  C
  C261     1.0000 0.17050  0.53736  0.65423  Biso   1.000  C
  H161     1.0000 0.19370  0.51570  0.66870  Biso   1.000  H
  C262     1.0000 0.13431  0.51801  0.62387  Biso   1.000  C
  H162     1.0000 0.13260  0.48360  0.61850  Biso   1.000  H
  C263     1.0000 0.09955  0.55013  0.60073  Biso   1.000  C
  C264     1.0000 0.10210  0.60058  0.61170  Biso   1.000  C
  H163     1.0000 0.07830  0.62210  0.59810  Biso   1.000  H
  C265     1.0000 0.13901  0.62006  0.64225  Biso   1.000  C
  H164     1.0000 0.14060  0.65440  0.64810  Biso   1.000  H
  C266     1.0000 0.06136  0.53028  0.56532  Biso   1.000  C
  C267     1.0000 0.20315  0.65176  0.72343  Biso   1.000  C
  C268     1.0000 0.24018  0.68905  0.72466  Biso   1.000  C
  H165     1.0000 0.27030  0.68400  0.70800  Biso   1.000  H
  N38      1.0000 0.50680  0.49910  0.82820  Biso   1.000  N
  C269     1.0000 0.46710  0.49710  0.86350  Biso   1.000  C
  H166     1.0000 0.43330  0.50200  0.85650  Biso   1.000  H
  N39      1.0000 0.48790  0.48640  0.91113  Biso   1.000  N
  C270     1.0000 0.54060  0.48180  0.90540  Biso   1.000  C
  H167     1.0000 0.56350  0.47480  0.93070  Biso   1.000  H
  C271     1.0000 0.55230  0.48960  0.85410  Biso   1.000  C
  H168     1.0000 0.58410  0.48870  0.84000  Biso   1.000  H
  C272     1.0000 0.46080  0.48800  0.95560  Biso   1.000  C
  C273     1.0000 0.40950  0.48150  0.95510  Biso   1.000  C
  H169     1.0000 0.39270  0.47510  0.92540  Biso   1.000  H
  N40      1.0000 0.78890  0.39267  0.69566  Biso   1.000  N
  O66      1.0000 0.56910  0.47499  0.74042  Biso   1.000  O
  O67      1.0000 0.57058  0.48141  0.65649  Biso   1.000  O
  O68      1.0000 0.93444  0.51475  0.55181  Biso   1.000  O
  O69      1.0000 0.97160  0.43887  0.55125  Biso   1.000  O
  O70      1.0000 0.48690  0.48630  0.57170  Biso   1.000  O
  C274     1.0000 0.59023  0.47141  0.69837  Biso   1.000  C
  C275     1.0000 0.64306  0.45300  0.69782  Biso   1.000  C
  C276     1.0000 0.66836  0.44726  0.65312  Biso   1.000  C
  H170     1.0000 0.65300  0.45610  0.62320  Biso   1.000  H
  C277     1.0000 0.71712  0.42814  0.65283  Biso   1.000  C
  H171     1.0000 0.73410  0.42450  0.62270  Biso   1.000  H
  C278     1.0000 0.73990  0.41485  0.69633  Biso   1.000  C
  C279     1.0000 0.71509  0.42064  0.74112  Biso   1.000  C
  H172     1.0000 0.73070  0.41150  0.77090  Biso   1.000  H
  C280     1.0000 0.66713  0.43994  0.74200  Biso   1.000  C
  H173     1.0000 0.65080  0.44420  0.77240  Biso   1.000  H
  C281     1.0000 0.82603  0.41192  0.66429  Biso   1.000  C
  C282     1.0000 0.82950  0.46264  0.65423  Biso   1.000  C
  H174     1.0000 0.80630  0.48430  0.66870  Biso   1.000  H
  C283     1.0000 0.86569  0.48199  0.62387  Biso   1.000  C
  H175     1.0000 0.86740  0.51640  0.61850  Biso   1.000  H
  C284     1.0000 0.90045  0.44987  0.60073  Biso   1.000  C
  C285     1.0000 0.89790  0.39942  0.61170  Biso   1.000  C
  H176     1.0000 0.92170  0.37790  0.59810  Biso   1.000  H
  C286     1.0000 0.86099  0.37994  0.64225  Biso   1.000  C
  H177     1.0000 0.85940  0.34560  0.64810  Biso   1.000  H
  C287     1.0000 0.93864  0.46972  0.56532  Biso   1.000  C
  C288     1.0000 0.79685  0.34824  0.72343  Biso   1.000  C
  C289     1.0000 0.75982  0.31095  0.72466  Biso   1.000  C
  H178     1.0000 0.72970  0.31600  0.70800  Biso   1.000  H
  N41      1.0000 0.49320  0.50090  0.82820  Biso   1.000  N
  C290     1.0000 0.53290  0.50290  0.86350  Biso   1.000  C
  H179     1.0000 0.56670  0.49800  0.85650  Biso   1.000  H
  N42      1.0000 0.51210  0.51360  0.91113  Biso   1.000  N
  C291     1.0000 0.45940  0.51820  0.90540  Biso   1.000  C
  H180     1.0000 0.43650  0.52520  0.93070  Biso   1.000  H
  C292     1.0000 0.44770  0.51040  0.85410  Biso   1.000  C
  H181     1.0000 0.41590  0.51130  0.84000  Biso   1.000  H
  C293     1.0000 0.53920  0.51200  0.95560  Biso   1.000  C
  C294     1.0000 0.59050  0.51850  0.95510  Biso   1.000  C
  H182     1.0000 0.60730  0.52490  0.92540  Biso   1.000  H
  N43      1.0000 0.60733  0.78890  0.69566  Biso   1.000  N
  O71      1.0000 0.52501  0.56910  0.74042  Biso   1.000  O
  O72      1.0000 0.51859  0.57058  0.65649  Biso   1.000  O
  O73      1.0000 0.48525  0.93444  0.55181  Biso   1.000  O
  O74      1.0000 0.56113  0.97160  0.55125  Biso   1.000  O
  O75      1.0000 0.51370  0.48690  0.57170  Biso   1.000  O
  C295     1.0000 0.52859  0.59023  0.69837  Biso   1.000  C
  C296     1.0000 0.54700  0.64306  0.69782  Biso   1.000  C
  C297     1.0000 0.55274  0.66836  0.65312  Biso   1.000  C
  H183     1.0000 0.54390  0.65300  0.62320  Biso   1.000  H
  C298     1.0000 0.57186  0.71712  0.65283  Biso   1.000  C
  H184     1.0000 0.57550  0.73410  0.62270  Biso   1.000  H
  C299     1.0000 0.58515  0.73990  0.69633  Biso   1.000  C
  C300     1.0000 0.57936  0.71509  0.74112  Biso   1.000  C
  H185     1.0000 0.58850  0.73070  0.77090  Biso   1.000  H
  C301     1.0000 0.56006  0.66713  0.74200  Biso   1.000  C
  H186     1.0000 0.55580  0.65080  0.77240  Biso   1.000  H
  C302     1.0000 0.58808  0.82603  0.66429  Biso   1.000  C
  C303     1.0000 0.53736  0.82950  0.65423  Biso   1.000  C
  H187     1.0000 0.51570  0.80630  0.66870  Biso   1.000  H
  C304     1.0000 0.51801  0.86569  0.62387  Biso   1.000  C
  H188     1.0000 0.48360  0.86740  0.61850  Biso   1.000  H
  C305     1.0000 0.55013  0.90045  0.60073  Biso   1.000  C
  C306     1.0000 0.60058  0.89790  0.61170  Biso   1.000  C
  H189     1.0000 0.62210  0.92170  0.59810  Biso   1.000  H
  C307     1.0000 0.62006  0.86099  0.64225  Biso   1.000  C
  H190     1.0000 0.65440  0.85940  0.64810  Biso   1.000  H
  C308     1.0000 0.53028  0.93864  0.56532  Biso   1.000  C
  C309     1.0000 0.65176  0.79685  0.72343  Biso   1.000  C
  C310     1.0000 0.68905  0.75982  0.72466  Biso   1.000  C
  H191     1.0000 0.68400  0.72970  0.70800  Biso   1.000  H
  N44      1.0000 0.49910  0.49320  0.82820  Biso   1.000  N
  C311     1.0000 0.49710  0.53290  0.86350  Biso   1.000  C
  H192     1.0000 0.50200  0.56670  0.85650  Biso   1.000  H
  N45      1.0000 0.48640  0.51210  0.91113  Biso   1.000  N
  C312     1.0000 0.48180  0.45940  0.90540  Biso   1.000  C
  H193     1.0000 0.47480  0.43650  0.93070  Biso   1.000  H
  C313     1.0000 0.48960  0.44770  0.85410  Biso   1.000  C
  H194     1.0000 0.48870  0.41590  0.84000  Biso   1.000  H
  C314     1.0000 0.48800  0.53920  0.95560  Biso   1.000  C
  C315     1.0000 0.48150  0.59050  0.95510  Biso   1.000  C
  H195     1.0000 0.47510  0.60730  0.92540  Biso   1.000  H
  N46      1.0000 0.39267  0.21110  0.69566  Biso   1.000  N
  O76      1.0000 0.47499  0.43090  0.74042  Biso   1.000  O
  O77      1.0000 0.48141  0.42942  0.65649  Biso   1.000  O
  O78      1.0000 0.51475  0.06556  0.55181  Biso   1.000  O
  O79      1.0000 0.43887  0.02840  0.55125  Biso   1.000  O
  O80      1.0000 0.48630  0.51310  0.57170  Biso   1.000  O
  C316     1.0000 0.47141  0.40977  0.69837  Biso   1.000  C
  C317     1.0000 0.45300  0.35694  0.69782  Biso   1.000  C
  C318     1.0000 0.44726  0.33164  0.65312  Biso   1.000  C
  H196     1.0000 0.45610  0.34700  0.62320  Biso   1.000  H
  C319     1.0000 0.42814  0.28288  0.65283  Biso   1.000  C
  H197     1.0000 0.42450  0.26590  0.62270  Biso   1.000  H
  C320     1.0000 0.41485  0.26010  0.69633  Biso   1.000  C
  C321     1.0000 0.42064  0.28491  0.74112  Biso   1.000  C
  H198     1.0000 0.41150  0.26930  0.77090  Biso   1.000  H
  C322     1.0000 0.43994  0.33287  0.74200  Biso   1.000  C
  H199     1.0000 0.44420  0.34920  0.77240  Biso   1.000  H
  C323     1.0000 0.41192  0.17397  0.66429  Biso   1.000  C
  C324     1.0000 0.46264  0.17050  0.65423  Biso   1.000  C
  H200     1.0000 0.48430  0.19370  0.66870  Biso   1.000  H
  C325     1.0000 0.48199  0.13431  0.62387  Biso   1.000  C
  H201     1.0000 0.51640  0.13260  0.61850  Biso   1.000  H
  C326     1.0000 0.44987  0.09955  0.60073  Biso   1.000  C
  C327     1.0000 0.39942  0.10210  0.61170  Biso   1.000  C
  H202     1.0000 0.37790  0.07830  0.59810  Biso   1.000  H
  C328     1.0000 0.37994  0.13901  0.64225  Biso   1.000  C
  H203     1.0000 0.34560  0.14060  0.64810  Biso   1.000  H
  C329     1.0000 0.46972  0.06136  0.56532  Biso   1.000  C
  C330     1.0000 0.34824  0.20315  0.72343  Biso   1.000  C
  C331     1.0000 0.31095  0.24018  0.72466  Biso   1.000  C
  H204     1.0000 0.31600  0.27030  0.70800  Biso   1.000  H
  N47      1.0000 0.50090  0.50680  0.82820  Biso   1.000  N
  C332     1.0000 0.50290  0.46710  0.86350  Biso   1.000  C
  H205     1.0000 0.49800  0.43330  0.85650  Biso   1.000  H
  N48      1.0000 0.51360  0.48790  0.91113  Biso   1.000  N
  C333     1.0000 0.51820  0.54060  0.90540  Biso   1.000  C
  H206     1.0000 0.52520  0.56350  0.93070  Biso   1.000  H
  C334     1.0000 0.51040  0.55230  0.85410  Biso   1.000  C
  H207     1.0000 0.51130  0.58410  0.84000  Biso   1.000  H
  C335     1.0000 0.51200  0.46080  0.95560  Biso   1.000  C
  C336     1.0000 0.51850  0.40950  0.95510  Biso   1.000  C
  H208     1.0000 0.52490  0.39270  0.92540  Biso   1.000  H
  Cu1      1.0000 0.00000  0.00000  0.14982  Biso   1.000  Cu
  Cu2      1.0000 0.00000  0.00000  0.24957  Biso   1.000  Cu
  Cu3      1.0000 0.50000  0.50000  0.35018  Biso   1.000  Cu
  Cu4      1.0000 0.50000  0.50000  0.25043  Biso   1.000  Cu
  Cu5      1.0000 0.00000  0.00000  0.85018  Biso   1.000  Cu
  Cu6      1.0000 0.00000  0.00000  0.75043  Biso   1.000  Cu
  Cu7      1.0000 0.50000  0.50000  0.64982  Biso   1.000  Cu
  Cu8      1.0000 0.50000  0.50000  0.74957  Biso   1.000  Cu
  Cu9      1.0000 0.52201  0.04414  0.00000  Biso   1.000  Cu
  Cu10     1.0000 0.47799  0.95586  0.00000  Biso   1.000  Cu
  Cu11     1.0000 0.95586  0.52201  0.00000  Biso   1.000  Cu
  Cu12     1.0000 0.04414  0.47799  0.00000  Biso   1.000  Cu
  Cu13     1.0000 0.97799  0.54414  0.50000  Biso   1.000  Cu
  Cu14     1.0000 0.02201  0.45586  0.50000  Biso   1.000  Cu
  Cu15     1.0000 0.54414  0.02201  0.50000  Biso   1.000  Cu
  Cu16     1.0000 0.45586  0.97799  0.50000  Biso   1.000  Cu
  C337     1.0000 0.65983  0.84017  0.25000  Biso   1.000  C
  H209     1.0000 0.63520  0.86480  0.25000  Biso   1.000  H
  C338     1.0000 0.73237  0.76763  0.25000  Biso   1.000  C
  H210     1.0000 0.75700  0.74300  0.25000  Biso   1.000  H
  C339     1.0000 0.34017  0.15983  0.25000  Biso   1.000  C
  H211     1.0000 0.36480  0.13520  0.25000  Biso   1.000  H
  C340     1.0000 0.26763  0.23237  0.25000  Biso   1.000  C
  H212     1.0000 0.24300  0.25700  0.25000  Biso   1.000  H
  C341     1.0000 0.15983  0.65983  0.25000  Biso   1.000  C
  H213     1.0000 0.13520  0.63520  0.25000  Biso   1.000  H
  C342     1.0000 0.23237  0.73237  0.25000  Biso   1.000  C
  H214     1.0000 0.25700  0.75700  0.25000  Biso   1.000  H
  C343     1.0000 0.84017  0.34017  0.25000  Biso   1.000  C
  H215     1.0000 0.86480  0.36480  0.25000  Biso   1.000  H
  C344     1.0000 0.76763  0.26763  0.25000  Biso   1.000  C
  H216     1.0000 0.74300  0.24300  0.25000  Biso   1.000  H
  C345     1.0000 0.34017  0.15983  0.75000  Biso   1.000  C
  H217     1.0000 0.36480  0.13520  0.75000  Biso   1.000  H
  C346     1.0000 0.26763  0.23237  0.75000  Biso   1.000  C
  H218     1.0000 0.24300  0.25700  0.75000  Biso   1.000  H
  C347     1.0000 0.65983  0.84017  0.75000  Biso   1.000  C
  H219     1.0000 0.63520  0.86480  0.75000  Biso   1.000  H
  C348     1.0000 0.73237  0.76763  0.75000  Biso   1.000  C
  H220     1.0000 0.75700  0.74300  0.75000  Biso   1.000  H
  C349     1.0000 0.84017  0.34017  0.75000  Biso   1.000  C
  H221     1.0000 0.86480  0.36480  0.75000  Biso   1.000  H
  C350     1.0000 0.76763  0.26763  0.75000  Biso   1.000  C
  H222     1.0000 0.74300  0.24300  0.75000  Biso   1.000  H
  C351     1.0000 0.15983  0.65983  0.75000  Biso   1.000  C
  H223     1.0000 0.13520  0.63520  0.75000  Biso   1.000  H
  C352     1.0000 0.23237  0.73237  0.75000  Biso   1.000  C
  H224     1.0000 0.25700  0.75700  0.75000  Biso   1.000  H
  C353     1.0000 0.98660  0.00700  0.50000  Biso   1.000  C
  H225     1.0000 0.02490  0.00830  0.50000  Biso   1.000  H
  C354     1.0000 0.88360  0.01510  0.50000  Biso   1.000  C
  H226     1.0000 0.84910  0.00700  0.50000  Biso   1.000  H
  C355     1.0000 0.01340  0.99300  0.50000  Biso   1.000  C
  H227     1.0000 0.97510  0.99170  0.50000  Biso   1.000  H
  C356     1.0000 0.11640  0.98490  0.50000  Biso   1.000  C
  H228     1.0000 0.15090  0.99300  0.50000  Biso   1.000  H
  C357     1.0000 0.99300  0.98660  0.50000  Biso   1.000  C
  H229     1.0000 0.99170  0.02490  0.50000  Biso   1.000  H
  C358     1.0000 0.98490  0.88360  0.50000  Biso   1.000  C
  H230     1.0000 0.99300  0.84910  0.50000  Biso   1.000  H
  C359     1.0000 0.00700  0.01340  0.50000  Biso   1.000  C
  H231     1.0000 0.00830  0.97510  0.50000  Biso   1.000  H
  C360     1.0000 0.01510  0.11640  0.50000  Biso   1.000  C
  H232     1.0000 0.00700  0.15090  0.50000  Biso   1.000  H
  C361     1.0000 0.51340  0.50700  0.00000  Biso   1.000  C
  H233     1.0000 0.47510  0.50830  0.00000  Biso   1.000  H
  C362     1.0000 0.61640  0.51510  0.00000  Biso   1.000  C
  H234     1.0000 0.65090  0.50700  0.00000  Biso   1.000  H
  C363     1.0000 0.48660  0.49300  0.00000  Biso   1.000  C
  H235     1.0000 0.52490  0.49170  0.00000  Biso   1.000  H
  C364     1.0000 0.38360  0.48490  0.00000  Biso   1.000  C
  H236     1.0000 0.34910  0.49300  0.00000  Biso   1.000  H
  C365     1.0000 0.50700  0.48660  0.00000  Biso   1.000  C
  H237     1.0000 0.50830  0.52490  0.00000  Biso   1.000  H
  C366     1.0000 0.51510  0.38360  0.00000  Biso   1.000  C
  H238     1.0000 0.50700  0.34910  0.00000  Biso   1.000  H
  C367     1.0000 0.49300  0.51340  0.00000  Biso   1.000  C
  H239     1.0000 0.49170  0.47510  0.00000  Biso   1.000  H
  C368     1.0000 0.48490  0.61640  0.00000  Biso   1.000  C
  H240     1.0000 0.49300  0.65090  0.00000  Biso   1.000  H
