data_image0
_cell_length_a       26.61
_cell_length_b       26.61
_cell_length_c       26.81
_cell_angle_alpha    90
_cell_angle_beta     90
_cell_angle_gamma    90

_symmetry_space_group_name_H-M    "P 1"
_symmetry_int_tables_number       1

loop_
  _symmetry_equiv_pos_as_xyz
  'x, y, z'

loop_
  _atom_site_label
  _atom_site_occupancy
  _atom_site_fract_x
  _atom_site_fract_y
  _atom_site_fract_z
  _atom_site_thermal_displace_type
  _atom_site_B_iso_or_equiv
  _atom_site_type_symbol
  O1       1.0000 0.43508  0.98831  0.44875  Biso   1.000  O
  O2       1.0000 0.47451  0.06286  0.44881  Biso   1.000  O
  O3       1.0000 0.07023  0.02388  0.36015  Biso   1.000  O
  O4       1.0000 0.06813  0.02690  0.27694  Biso   1.000  O
  N1       1.0000 0.28785  0.11273  0.30887  Biso   1.000  N
  C1       1.0000 0.44054  0.03370  0.43548  Biso   1.000  C
  C2       1.0000 0.40149  0.05467  0.39977  Biso   1.000  C
  C3       1.0000 0.36537  0.02280  0.37897  Biso   1.000  C
  H1       1.0000 0.36570  0.98860  0.38600  Biso   1.000  H
  C4       1.0000 0.32931  0.04263  0.34804  Biso   1.000  C
  H2       1.0000 0.30570  0.02110  0.33380  Biso   1.000  H
  C5       1.0000 0.32679  0.09315  0.33729  Biso   1.000  C
  C6       1.0000 0.36334  0.12462  0.35765  Biso   1.000  C
  H3       1.0000 0.36310  0.15880  0.35020  Biso   1.000  H
  C7       1.0000 0.40019  0.10520  0.38902  Biso   1.000  C
  H4       1.0000 0.42410  0.12650  0.40280  Biso   1.000  H
  C8       1.0000 0.23888  0.09162  0.31175  Biso   1.000  C
  C9       1.0000 0.21720  0.08042  0.35679  Biso   1.000  C
  H5       1.0000 0.23510  0.08580  0.38610  Biso   1.000  H
  C10      1.0000 0.16886  0.06106  0.35903  Biso   1.000  C
  H6       1.0000 0.15490  0.05330  0.38990  Biso   1.000  H
  C11      1.0000 0.14170  0.05323  0.31699  Biso   1.000  C
  C12      1.0000 0.08892  0.03288  0.31839  Biso   1.000  C
  C13      1.0000 0.16327  0.06469  0.27117  Biso   1.000  C
  H7       1.0000 0.14500  0.05970  0.24200  Biso   1.000  H
  C14      1.0000 0.21188  0.08348  0.26840  Biso   1.000  C
  H8       1.0000 0.22620  0.09060  0.23750  Biso   1.000  H
  C15      1.0000 0.29432  0.15711  0.27869  Biso   1.000  C
  C16      1.0000 0.25813  0.19370  0.27880  Biso   1.000  C
  H9       1.0000 0.22960  0.18970  0.29840  Biso   1.000  H
  C17      1.0000 0.01040  0.04430  0.16290  Biso   1.000  C
  H10      1.0000 0.01760  0.07360  0.18050  Biso   1.000  H
  C18      1.0000 0.01000  0.04480  0.11150  Biso   1.000  C
  H11      1.0000 0.01640  0.07450  0.09430  Biso   1.000  H
  N2       1.0000 0.00700  0.05240  0.02430  Biso   1.000  N
  C19      1.0000 0.97410  0.95800  0.47020  Biso   1.000  C
  H12      1.0000 0.93980  0.95850  0.45820  Biso   1.000  H
  C20      1.0000 0.01200  0.95170  0.47240  Biso   1.000  C
  H13      1.0000 0.04480  0.94130  0.46060  Biso   1.000  H
  H14      1.0000 0.98770  0.92720  0.46060  Biso   1.000  H
  H15      1.0000 0.37050  0.91130  0.47080  Biso   1.000  H
  H16      1.0000 0.33230  0.84230  0.52920  Biso   1.000  H
  H17      1.0000 0.48160  0.84310  0.52880  Biso   1.000  H
  H18      1.0000 0.45220  0.76790  0.47030  Biso   1.000  H
  C21      1.0000 0.42380  0.86890  0.44940  Biso   1.000  C
  H19      1.0000 0.45500  0.86420  0.43140  Biso   1.000  H
  H20      1.0000 0.40420  0.89410  0.43200  Biso   1.000  H
  C22      1.0000 0.39480  0.81970  0.45080  Biso   1.000  C
  H21      1.0000 0.36230  0.82490  0.43520  Biso   1.000  H
  H22      1.0000 0.41280  0.79500  0.43120  Biso   1.000  H
  H23      1.0000 0.99000  0.92750  0.45820  Biso   1.000  H
  O5       1.0000 0.56492  0.01169  0.44875  Biso   1.000  O
  O6       1.0000 0.52549  0.93714  0.44881  Biso   1.000  O
  O7       1.0000 0.92977  0.97612  0.36015  Biso   1.000  O
  O8       1.0000 0.93187  0.97310  0.27694  Biso   1.000  O
  N3       1.0000 0.71215  0.88727  0.30887  Biso   1.000  N
  C23      1.0000 0.55946  0.96630  0.43548  Biso   1.000  C
  C24      1.0000 0.59851  0.94533  0.39977  Biso   1.000  C
  C25      1.0000 0.63463  0.97720  0.37897  Biso   1.000  C
  H24      1.0000 0.63430  0.01140  0.38600  Biso   1.000  H
  C26      1.0000 0.67069  0.95737  0.34804  Biso   1.000  C
  H25      1.0000 0.69430  0.97890  0.33380  Biso   1.000  H
  C27      1.0000 0.67321  0.90685  0.33729  Biso   1.000  C
  C28      1.0000 0.63666  0.87538  0.35765  Biso   1.000  C
  H26      1.0000 0.63690  0.84120  0.35020  Biso   1.000  H
  C29      1.0000 0.59981  0.89480  0.38902  Biso   1.000  C
  H27      1.0000 0.57590  0.87350  0.40280  Biso   1.000  H
  C30      1.0000 0.76112  0.90838  0.31175  Biso   1.000  C
  C31      1.0000 0.78280  0.91958  0.35679  Biso   1.000  C
  H28      1.0000 0.76490  0.91420  0.38610  Biso   1.000  H
  C32      1.0000 0.83114  0.93894  0.35903  Biso   1.000  C
  H29      1.0000 0.84510  0.94670  0.38990  Biso   1.000  H
  C33      1.0000 0.85830  0.94677  0.31699  Biso   1.000  C
  C34      1.0000 0.91108  0.96712  0.31839  Biso   1.000  C
  C35      1.0000 0.83673  0.93531  0.27117  Biso   1.000  C
  H30      1.0000 0.85500  0.94030  0.24200  Biso   1.000  H
  C36      1.0000 0.78812  0.91652  0.26840  Biso   1.000  C
  H31      1.0000 0.77380  0.90940  0.23750  Biso   1.000  H
  C37      1.0000 0.70568  0.84289  0.27869  Biso   1.000  C
  C38      1.0000 0.74187  0.80630  0.27880  Biso   1.000  C
  H32      1.0000 0.77040  0.81030  0.29840  Biso   1.000  H
  C39      1.0000 0.98960  0.95570  0.16290  Biso   1.000  C
  H33      1.0000 0.98240  0.92640  0.18050  Biso   1.000  H
  C40      1.0000 0.99000  0.95520  0.11150  Biso   1.000  C
  H34      1.0000 0.98360  0.92550  0.09430  Biso   1.000  H
  N4       1.0000 0.99300  0.94760  0.02430  Biso   1.000  N
  C41      1.0000 0.02590  0.04200  0.47020  Biso   1.000  C
  H35      1.0000 0.06020  0.04150  0.45820  Biso   1.000  H
  C42      1.0000 0.98800  0.04830  0.47240  Biso   1.000  C
  H36      1.0000 0.95520  0.05870  0.46060  Biso   1.000  H
  H37      1.0000 0.01230  0.07280  0.46060  Biso   1.000  H
  H38      1.0000 0.62950  0.08870  0.47080  Biso   1.000  H
  H39      1.0000 0.66770  0.15770  0.52920  Biso   1.000  H
  H40      1.0000 0.51840  0.15690  0.52880  Biso   1.000  H
  H41      1.0000 0.54780  0.23210  0.47030  Biso   1.000  H
  C43      1.0000 0.57620  0.13110  0.44940  Biso   1.000  C
  H42      1.0000 0.54500  0.13580  0.43140  Biso   1.000  H
  H43      1.0000 0.59580  0.10590  0.43200  Biso   1.000  H
  C44      1.0000 0.60520  0.18030  0.45080  Biso   1.000  C
  H44      1.0000 0.63770  0.17510  0.43520  Biso   1.000  H
  H45      1.0000 0.58720  0.20500  0.43120  Biso   1.000  H
  H46      1.0000 0.01000  0.07250  0.45820  Biso   1.000  H
  O9       1.0000 0.01169  0.43508  0.44875  Biso   1.000  O
  O10      1.0000 0.93714  0.47451  0.44881  Biso   1.000  O
  O11      1.0000 0.97612  0.07023  0.36015  Biso   1.000  O
  O12      1.0000 0.97310  0.06813  0.27694  Biso   1.000  O
  N5       1.0000 0.88727  0.28785  0.30887  Biso   1.000  N
  C45      1.0000 0.96630  0.44054  0.43548  Biso   1.000  C
  C46      1.0000 0.94533  0.40149  0.39977  Biso   1.000  C
  C47      1.0000 0.97720  0.36537  0.37897  Biso   1.000  C
  H47      1.0000 0.01140  0.36570  0.38600  Biso   1.000  H
  C48      1.0000 0.95737  0.32931  0.34804  Biso   1.000  C
  H48      1.0000 0.97890  0.30570  0.33380  Biso   1.000  H
  C49      1.0000 0.90685  0.32679  0.33729  Biso   1.000  C
  C50      1.0000 0.87538  0.36334  0.35765  Biso   1.000  C
  H49      1.0000 0.84120  0.36310  0.35020  Biso   1.000  H
  C51      1.0000 0.89480  0.40019  0.38902  Biso   1.000  C
  H50      1.0000 0.87350  0.42410  0.40280  Biso   1.000  H
  C52      1.0000 0.90838  0.23888  0.31175  Biso   1.000  C
  C53      1.0000 0.91958  0.21720  0.35679  Biso   1.000  C
  H51      1.0000 0.91420  0.23510  0.38610  Biso   1.000  H
  C54      1.0000 0.93894  0.16886  0.35903  Biso   1.000  C
  H52      1.0000 0.94670  0.15490  0.38990  Biso   1.000  H
  C55      1.0000 0.94677  0.14170  0.31699  Biso   1.000  C
  C56      1.0000 0.96712  0.08892  0.31839  Biso   1.000  C
  C57      1.0000 0.93531  0.16327  0.27117  Biso   1.000  C
  H53      1.0000 0.94030  0.14500  0.24200  Biso   1.000  H
  C58      1.0000 0.91652  0.21188  0.26840  Biso   1.000  C
  H54      1.0000 0.90940  0.22620  0.23750  Biso   1.000  H
  C59      1.0000 0.84289  0.29432  0.27869  Biso   1.000  C
  C60      1.0000 0.80630  0.25813  0.27880  Biso   1.000  C
  H55      1.0000 0.81030  0.22960  0.29840  Biso   1.000  H
  C61      1.0000 0.95570  0.01040  0.16290  Biso   1.000  C
  H56      1.0000 0.92640  0.01760  0.18050  Biso   1.000  H
  C62      1.0000 0.95520  0.01000  0.11150  Biso   1.000  C
  H57      1.0000 0.92550  0.01640  0.09430  Biso   1.000  H
  N6       1.0000 0.94760  0.00700  0.02430  Biso   1.000  N
  C63      1.0000 0.04200  0.97410  0.47020  Biso   1.000  C
  H58      1.0000 0.04150  0.93980  0.45820  Biso   1.000  H
  C64      1.0000 0.04830  0.01200  0.47240  Biso   1.000  C
  H59      1.0000 0.05870  0.04480  0.46060  Biso   1.000  H
  H60      1.0000 0.07280  0.98770  0.46060  Biso   1.000  H
  H61      1.0000 0.08870  0.37050  0.47080  Biso   1.000  H
  H62      1.0000 0.15770  0.33230  0.52920  Biso   1.000  H
  H63      1.0000 0.15690  0.48160  0.52880  Biso   1.000  H
  H64      1.0000 0.23210  0.45220  0.47030  Biso   1.000  H
  C65      1.0000 0.13110  0.42380  0.44940  Biso   1.000  C
  H65      1.0000 0.13580  0.45500  0.43140  Biso   1.000  H
  H66      1.0000 0.10590  0.40420  0.43200  Biso   1.000  H
  C66      1.0000 0.18030  0.39480  0.45080  Biso   1.000  C
  H67      1.0000 0.17510  0.36230  0.43520  Biso   1.000  H
  H68      1.0000 0.20500  0.41280  0.43120  Biso   1.000  H
  H69      1.0000 0.07250  0.99000  0.45820  Biso   1.000  H
  O13      1.0000 0.98831  0.56492  0.44875  Biso   1.000  O
  O14      1.0000 0.06286  0.52549  0.44881  Biso   1.000  O
  O15      1.0000 0.02388  0.92977  0.36015  Biso   1.000  O
  O16      1.0000 0.02690  0.93187  0.27694  Biso   1.000  O
  N7       1.0000 0.11273  0.71215  0.30887  Biso   1.000  N
  C67      1.0000 0.03370  0.55946  0.43548  Biso   1.000  C
  C68      1.0000 0.05467  0.59851  0.39977  Biso   1.000  C
  C69      1.0000 0.02280  0.63463  0.37897  Biso   1.000  C
  H70      1.0000 0.98860  0.63430  0.38600  Biso   1.000  H
  C70      1.0000 0.04263  0.67069  0.34804  Biso   1.000  C
  H71      1.0000 0.02110  0.69430  0.33380  Biso   1.000  H
  C71      1.0000 0.09315  0.67321  0.33729  Biso   1.000  C
  C72      1.0000 0.12462  0.63666  0.35765  Biso   1.000  C
  H72      1.0000 0.15880  0.63690  0.35020  Biso   1.000  H
  C73      1.0000 0.10520  0.59981  0.38902  Biso   1.000  C
  H73      1.0000 0.12650  0.57590  0.40280  Biso   1.000  H
  C74      1.0000 0.09162  0.76112  0.31175  Biso   1.000  C
  C75      1.0000 0.08042  0.78280  0.35679  Biso   1.000  C
  H74      1.0000 0.08580  0.76490  0.38610  Biso   1.000  H
  C76      1.0000 0.06106  0.83114  0.35903  Biso   1.000  C
  H75      1.0000 0.05330  0.84510  0.38990  Biso   1.000  H
  C77      1.0000 0.05323  0.85830  0.31699  Biso   1.000  C
  C78      1.0000 0.03288  0.91108  0.31839  Biso   1.000  C
  C79      1.0000 0.06469  0.83673  0.27117  Biso   1.000  C
  H76      1.0000 0.05970  0.85500  0.24200  Biso   1.000  H
  C80      1.0000 0.08348  0.78812  0.26840  Biso   1.000  C
  H77      1.0000 0.09060  0.77380  0.23750  Biso   1.000  H
  C81      1.0000 0.15711  0.70568  0.27869  Biso   1.000  C
  C82      1.0000 0.19370  0.74187  0.27880  Biso   1.000  C
  H78      1.0000 0.18970  0.77040  0.29840  Biso   1.000  H
  C83      1.0000 0.04430  0.98960  0.16290  Biso   1.000  C
  H79      1.0000 0.07360  0.98240  0.18050  Biso   1.000  H
  C84      1.0000 0.04480  0.99000  0.11150  Biso   1.000  C
  H80      1.0000 0.07450  0.98360  0.09430  Biso   1.000  H
  N8       1.0000 0.05240  0.99300  0.02430  Biso   1.000  N
  C85      1.0000 0.95800  0.02590  0.47020  Biso   1.000  C
  H81      1.0000 0.95850  0.06020  0.45820  Biso   1.000  H
  C86      1.0000 0.95170  0.98800  0.47240  Biso   1.000  C
  H82      1.0000 0.94130  0.95520  0.46060  Biso   1.000  H
  H83      1.0000 0.92720  0.01230  0.46060  Biso   1.000  H
  H84      1.0000 0.91130  0.62950  0.47080  Biso   1.000  H
  H85      1.0000 0.84230  0.66770  0.52920  Biso   1.000  H
  H86      1.0000 0.84310  0.51840  0.52880  Biso   1.000  H
  H87      1.0000 0.76790  0.54780  0.47030  Biso   1.000  H
  C87      1.0000 0.86890  0.57620  0.44940  Biso   1.000  C
  H88      1.0000 0.86420  0.54500  0.43140  Biso   1.000  H
  H89      1.0000 0.89410  0.59580  0.43200  Biso   1.000  H
  C88      1.0000 0.81970  0.60520  0.45080  Biso   1.000  C
  H90      1.0000 0.82490  0.63770  0.43520  Biso   1.000  H
  H91      1.0000 0.79500  0.58720  0.43120  Biso   1.000  H
  H92      1.0000 0.92750  0.01000  0.45820  Biso   1.000  H
  O17      1.0000 0.06492  0.48831  0.05125  Biso   1.000  O
  O18      1.0000 0.02549  0.56286  0.05119  Biso   1.000  O
  O19      1.0000 0.42977  0.52388  0.13985  Biso   1.000  O
  O20      1.0000 0.43187  0.52690  0.22306  Biso   1.000  O
  N9       1.0000 0.21215  0.61273  0.19113  Biso   1.000  N
  C89      1.0000 0.05946  0.53370  0.06452  Biso   1.000  C
  C90      1.0000 0.09851  0.55467  0.10023  Biso   1.000  C
  C91      1.0000 0.13463  0.52280  0.12103  Biso   1.000  C
  H93      1.0000 0.13430  0.48860  0.11400  Biso   1.000  H
  C92      1.0000 0.17069  0.54263  0.15196  Biso   1.000  C
  H94      1.0000 0.19430  0.52110  0.16620  Biso   1.000  H
  C93      1.0000 0.17321  0.59315  0.16271  Biso   1.000  C
  C94      1.0000 0.13666  0.62462  0.14235  Biso   1.000  C
  H95      1.0000 0.13690  0.65880  0.14980  Biso   1.000  H
  C95      1.0000 0.09981  0.60520  0.11098  Biso   1.000  C
  H96      1.0000 0.07590  0.62650  0.09720  Biso   1.000  H
  C96      1.0000 0.26112  0.59162  0.18825  Biso   1.000  C
  C97      1.0000 0.28280  0.58042  0.14321  Biso   1.000  C
  H97      1.0000 0.26490  0.58580  0.11390  Biso   1.000  H
  C98      1.0000 0.33114  0.56106  0.14097  Biso   1.000  C
  H98      1.0000 0.34510  0.55330  0.11010  Biso   1.000  H
  C99      1.0000 0.35830  0.55323  0.18301  Biso   1.000  C
  C100     1.0000 0.41108  0.53288  0.18161  Biso   1.000  C
  C101     1.0000 0.33673  0.56469  0.22883  Biso   1.000  C
  H99      1.0000 0.35500  0.55970  0.25800  Biso   1.000  H
  C102     1.0000 0.28812  0.58348  0.23160  Biso   1.000  C
  H100     1.0000 0.27380  0.59060  0.26250  Biso   1.000  H
  C103     1.0000 0.20568  0.65711  0.22131  Biso   1.000  C
  C104     1.0000 0.24187  0.69370  0.22120  Biso   1.000  C
  H101     1.0000 0.27040  0.68970  0.20160  Biso   1.000  H
  C105     1.0000 0.48960  0.54430  0.33710  Biso   1.000  C
  H102     1.0000 0.48240  0.57360  0.31950  Biso   1.000  H
  C106     1.0000 0.49000  0.54480  0.38850  Biso   1.000  C
  H103     1.0000 0.48360  0.57450  0.40570  Biso   1.000  H
  N10      1.0000 0.49300  0.55240  0.47570  Biso   1.000  N
  C107     1.0000 0.52590  0.45800  0.02980  Biso   1.000  C
  H104     1.0000 0.56020  0.45850  0.04180  Biso   1.000  H
  C108     1.0000 0.48800  0.45170  0.02760  Biso   1.000  C
  H105     1.0000 0.45520  0.44130  0.03940  Biso   1.000  H
  H106     1.0000 0.51230  0.42720  0.03940  Biso   1.000  H
  H107     1.0000 0.12950  0.41130  0.02920  Biso   1.000  H
  H108     1.0000 0.16770  0.34230  0.97080  Biso   1.000  H
  H109     1.0000 0.01840  0.34310  0.97120  Biso   1.000  H
  H110     1.0000 0.04780  0.26790  0.02970  Biso   1.000  H
  C109     1.0000 0.07620  0.36890  0.05060  Biso   1.000  C
  H111     1.0000 0.04500  0.36420  0.06860  Biso   1.000  H
  H112     1.0000 0.09580  0.39410  0.06800  Biso   1.000  H
  C110     1.0000 0.10520  0.31970  0.04920  Biso   1.000  C
  H113     1.0000 0.13770  0.32490  0.06480  Biso   1.000  H
  H114     1.0000 0.08720  0.29500  0.06880  Biso   1.000  H
  H115     1.0000 0.51000  0.42750  0.04180  Biso   1.000  H
  O21      1.0000 0.93508  0.51169  0.05125  Biso   1.000  O
  O22      1.0000 0.97451  0.43714  0.05119  Biso   1.000  O
  O23      1.0000 0.57023  0.47612  0.13985  Biso   1.000  O
  O24      1.0000 0.56813  0.47310  0.22306  Biso   1.000  O
  N11      1.0000 0.78785  0.38727  0.19113  Biso   1.000  N
  C111     1.0000 0.94054  0.46630  0.06452  Biso   1.000  C
  C112     1.0000 0.90149  0.44533  0.10023  Biso   1.000  C
  C113     1.0000 0.86537  0.47720  0.12103  Biso   1.000  C
  H116     1.0000 0.86570  0.51140  0.11400  Biso   1.000  H
  C114     1.0000 0.82931  0.45737  0.15196  Biso   1.000  C
  H117     1.0000 0.80570  0.47890  0.16620  Biso   1.000  H
  C115     1.0000 0.82679  0.40685  0.16271  Biso   1.000  C
  C116     1.0000 0.86334  0.37538  0.14235  Biso   1.000  C
  H118     1.0000 0.86310  0.34120  0.14980  Biso   1.000  H
  C117     1.0000 0.90019  0.39480  0.11098  Biso   1.000  C
  H119     1.0000 0.92410  0.37350  0.09720  Biso   1.000  H
  C118     1.0000 0.73888  0.40838  0.18825  Biso   1.000  C
  C119     1.0000 0.71720  0.41958  0.14321  Biso   1.000  C
  H120     1.0000 0.73510  0.41420  0.11390  Biso   1.000  H
  C120     1.0000 0.66886  0.43894  0.14097  Biso   1.000  C
  H121     1.0000 0.65490  0.44670  0.11010  Biso   1.000  H
  C121     1.0000 0.64170  0.44677  0.18301  Biso   1.000  C
  C122     1.0000 0.58892  0.46712  0.18161  Biso   1.000  C
  C123     1.0000 0.66327  0.43531  0.22883  Biso   1.000  C
  H122     1.0000 0.64500  0.44030  0.25800  Biso   1.000  H
  C124     1.0000 0.71188  0.41652  0.23160  Biso   1.000  C
  H123     1.0000 0.72620  0.40940  0.26250  Biso   1.000  H
  C125     1.0000 0.79432  0.34289  0.22131  Biso   1.000  C
  C126     1.0000 0.75813  0.30630  0.22120  Biso   1.000  C
  H124     1.0000 0.72960  0.31030  0.20160  Biso   1.000  H
  C127     1.0000 0.51040  0.45570  0.33710  Biso   1.000  C
  H125     1.0000 0.51760  0.42640  0.31950  Biso   1.000  H
  C128     1.0000 0.51000  0.45520  0.38850  Biso   1.000  C
  H126     1.0000 0.51640  0.42550  0.40570  Biso   1.000  H
  N12      1.0000 0.50700  0.44760  0.47570  Biso   1.000  N
  C129     1.0000 0.47410  0.54200  0.02980  Biso   1.000  C
  H127     1.0000 0.43980  0.54150  0.04180  Biso   1.000  H
  C130     1.0000 0.51200  0.54830  0.02760  Biso   1.000  C
  H128     1.0000 0.54480  0.55870  0.03940  Biso   1.000  H
  H129     1.0000 0.48770  0.57280  0.03940  Biso   1.000  H
  H130     1.0000 0.87050  0.58870  0.02920  Biso   1.000  H
  H131     1.0000 0.83230  0.65770  0.97080  Biso   1.000  H
  H132     1.0000 0.98160  0.65690  0.97120  Biso   1.000  H
  H133     1.0000 0.95220  0.73210  0.02970  Biso   1.000  H
  C131     1.0000 0.92380  0.63110  0.05060  Biso   1.000  C
  H134     1.0000 0.95500  0.63580  0.06860  Biso   1.000  H
  H135     1.0000 0.90420  0.60590  0.06800  Biso   1.000  H
  C132     1.0000 0.89480  0.68030  0.04920  Biso   1.000  C
  H136     1.0000 0.86230  0.67510  0.06480  Biso   1.000  H
  H137     1.0000 0.91280  0.70500  0.06880  Biso   1.000  H
  H138     1.0000 0.49000  0.57250  0.04180  Biso   1.000  H
  O25      1.0000 0.48831  0.93508  0.05125  Biso   1.000  O
  O26      1.0000 0.56286  0.97451  0.05119  Biso   1.000  O
  O27      1.0000 0.52388  0.57023  0.13985  Biso   1.000  O
  O28      1.0000 0.52690  0.56813  0.22306  Biso   1.000  O
  N13      1.0000 0.61273  0.78785  0.19113  Biso   1.000  N
  C133     1.0000 0.53370  0.94054  0.06452  Biso   1.000  C
  C134     1.0000 0.55467  0.90149  0.10023  Biso   1.000  C
  C135     1.0000 0.52280  0.86537  0.12103  Biso   1.000  C
  H139     1.0000 0.48860  0.86570  0.11400  Biso   1.000  H
  C136     1.0000 0.54263  0.82931  0.15196  Biso   1.000  C
  H140     1.0000 0.52110  0.80570  0.16620  Biso   1.000  H
  C137     1.0000 0.59315  0.82679  0.16271  Biso   1.000  C
  C138     1.0000 0.62462  0.86334  0.14235  Biso   1.000  C
  H141     1.0000 0.65880  0.86310  0.14980  Biso   1.000  H
  C139     1.0000 0.60520  0.90019  0.11098  Biso   1.000  C
  H142     1.0000 0.62650  0.92410  0.09720  Biso   1.000  H
  C140     1.0000 0.59162  0.73888  0.18825  Biso   1.000  C
  C141     1.0000 0.58042  0.71720  0.14321  Biso   1.000  C
  H143     1.0000 0.58580  0.73510  0.11390  Biso   1.000  H
  C142     1.0000 0.56106  0.66886  0.14097  Biso   1.000  C
  H144     1.0000 0.55330  0.65490  0.11010  Biso   1.000  H
  C143     1.0000 0.55323  0.64170  0.18301  Biso   1.000  C
  C144     1.0000 0.53288  0.58892  0.18161  Biso   1.000  C
  C145     1.0000 0.56469  0.66327  0.22883  Biso   1.000  C
  H145     1.0000 0.55970  0.64500  0.25800  Biso   1.000  H
  C146     1.0000 0.58348  0.71188  0.23160  Biso   1.000  C
  H146     1.0000 0.59060  0.72620  0.26250  Biso   1.000  H
  C147     1.0000 0.65711  0.79432  0.22131  Biso   1.000  C
  C148     1.0000 0.69370  0.75813  0.22120  Biso   1.000  C
  H147     1.0000 0.68970  0.72960  0.20160  Biso   1.000  H
  C149     1.0000 0.54430  0.51040  0.33710  Biso   1.000  C
  H148     1.0000 0.57360  0.51760  0.31950  Biso   1.000  H
  C150     1.0000 0.54480  0.51000  0.38850  Biso   1.000  C
  H149     1.0000 0.57450  0.51640  0.40570  Biso   1.000  H
  N14      1.0000 0.55240  0.50700  0.47570  Biso   1.000  N
  C151     1.0000 0.45800  0.47410  0.02980  Biso   1.000  C
  H150     1.0000 0.45850  0.43980  0.04180  Biso   1.000  H
  C152     1.0000 0.45170  0.51200  0.02760  Biso   1.000  C
  H151     1.0000 0.44130  0.54480  0.03940  Biso   1.000  H
  H152     1.0000 0.42720  0.48770  0.03940  Biso   1.000  H
  H153     1.0000 0.41130  0.87050  0.02920  Biso   1.000  H
  H154     1.0000 0.34230  0.83230  0.97080  Biso   1.000  H
  H155     1.0000 0.34310  0.98160  0.97120  Biso   1.000  H
  H156     1.0000 0.26790  0.95220  0.02970  Biso   1.000  H
  C153     1.0000 0.36890  0.92380  0.05060  Biso   1.000  C
  H157     1.0000 0.36420  0.95500  0.06860  Biso   1.000  H
  H158     1.0000 0.39410  0.90420  0.06800  Biso   1.000  H
  C154     1.0000 0.31970  0.89480  0.04920  Biso   1.000  C
  H159     1.0000 0.32490  0.86230  0.06480  Biso   1.000  H
  H160     1.0000 0.29500  0.91280  0.06880  Biso   1.000  H
  H161     1.0000 0.42750  0.49000  0.04180  Biso   1.000  H
  O29      1.0000 0.51169  0.06492  0.05125  Biso   1.000  O
  O30      1.0000 0.43714  0.02549  0.05119  Biso   1.000  O
  O31      1.0000 0.47612  0.42977  0.13985  Biso   1.000  O
  O32      1.0000 0.47310  0.43187  0.22306  Biso   1.000  O
  N15      1.0000 0.38727  0.21215  0.19113  Biso   1.000  N
  C155     1.0000 0.46630  0.05946  0.06452  Biso   1.000  C
  C156     1.0000 0.44533  0.09851  0.10023  Biso   1.000  C
  C157     1.0000 0.47720  0.13463  0.12103  Biso   1.000  C
  H162     1.0000 0.51140  0.13430  0.11400  Biso   1.000  H
  C158     1.0000 0.45737  0.17069  0.15196  Biso   1.000  C
  H163     1.0000 0.47890  0.19430  0.16620  Biso   1.000  H
  C159     1.0000 0.40685  0.17321  0.16271  Biso   1.000  C
  C160     1.0000 0.37538  0.13666  0.14235  Biso   1.000  C
  H164     1.0000 0.34120  0.13690  0.14980  Biso   1.000  H
  C161     1.0000 0.39480  0.09981  0.11098  Biso   1.000  C
  H165     1.0000 0.37350  0.07590  0.09720  Biso   1.000  H
  C162     1.0000 0.40838  0.26112  0.18825  Biso   1.000  C
  C163     1.0000 0.41958  0.28280  0.14321  Biso   1.000  C
  H166     1.0000 0.41420  0.26490  0.11390  Biso   1.000  H
  C164     1.0000 0.43894  0.33114  0.14097  Biso   1.000  C
  H167     1.0000 0.44670  0.34510  0.11010  Biso   1.000  H
  C165     1.0000 0.44677  0.35830  0.18301  Biso   1.000  C
  C166     1.0000 0.46712  0.41108  0.18161  Biso   1.000  C
  C167     1.0000 0.43531  0.33673  0.22883  Biso   1.000  C
  H168     1.0000 0.44030  0.35500  0.25800  Biso   1.000  H
  C168     1.0000 0.41652  0.28812  0.23160  Biso   1.000  C
  H169     1.0000 0.40940  0.27380  0.26250  Biso   1.000  H
  C169     1.0000 0.34289  0.20568  0.22131  Biso   1.000  C
  C170     1.0000 0.30630  0.24187  0.22120  Biso   1.000  C
  H170     1.0000 0.31030  0.27040  0.20160  Biso   1.000  H
  C171     1.0000 0.45570  0.48960  0.33710  Biso   1.000  C
  H171     1.0000 0.42640  0.48240  0.31950  Biso   1.000  H
  C172     1.0000 0.45520  0.49000  0.38850  Biso   1.000  C
  H172     1.0000 0.42550  0.48360  0.40570  Biso   1.000  H
  N16      1.0000 0.44760  0.49300  0.47570  Biso   1.000  N
  C173     1.0000 0.54200  0.52590  0.02980  Biso   1.000  C
  H173     1.0000 0.54150  0.56020  0.04180  Biso   1.000  H
  C174     1.0000 0.54830  0.48800  0.02760  Biso   1.000  C
  H174     1.0000 0.55870  0.45520  0.03940  Biso   1.000  H
  H175     1.0000 0.57280  0.51230  0.03940  Biso   1.000  H
  H176     1.0000 0.58870  0.12950  0.02920  Biso   1.000  H
  H177     1.0000 0.65770  0.16770  0.97080  Biso   1.000  H
  H178     1.0000 0.65690  0.01840  0.97120  Biso   1.000  H
  H179     1.0000 0.73210  0.04780  0.02970  Biso   1.000  H
  C175     1.0000 0.63110  0.07620  0.05060  Biso   1.000  C
  H180     1.0000 0.63580  0.04500  0.06860  Biso   1.000  H
  H181     1.0000 0.60590  0.09580  0.06800  Biso   1.000  H
  C176     1.0000 0.68030  0.10520  0.04920  Biso   1.000  C
  H182     1.0000 0.67510  0.13770  0.06480  Biso   1.000  H
  H183     1.0000 0.70500  0.08720  0.06880  Biso   1.000  H
  H184     1.0000 0.57250  0.51000  0.04180  Biso   1.000  H
  O33      1.0000 0.56492  0.01169  0.55125  Biso   1.000  O
  O34      1.0000 0.52549  0.93714  0.55119  Biso   1.000  O
  O35      1.0000 0.92977  0.97612  0.63985  Biso   1.000  O
  O36      1.0000 0.93187  0.97310  0.72306  Biso   1.000  O
  N17      1.0000 0.71215  0.88727  0.69113  Biso   1.000  N
  C177     1.0000 0.55946  0.96630  0.56452  Biso   1.000  C
  C178     1.0000 0.59851  0.94533  0.60023  Biso   1.000  C
  C179     1.0000 0.63463  0.97720  0.62103  Biso   1.000  C
  H185     1.0000 0.63430  0.01140  0.61400  Biso   1.000  H
  C180     1.0000 0.67069  0.95737  0.65196  Biso   1.000  C
  H186     1.0000 0.69430  0.97890  0.66620  Biso   1.000  H
  C181     1.0000 0.67321  0.90685  0.66271  Biso   1.000  C
  C182     1.0000 0.63666  0.87538  0.64235  Biso   1.000  C
  H187     1.0000 0.63690  0.84120  0.64980  Biso   1.000  H
  C183     1.0000 0.59981  0.89480  0.61098  Biso   1.000  C
  H188     1.0000 0.57590  0.87350  0.59720  Biso   1.000  H
  C184     1.0000 0.76112  0.90838  0.68825  Biso   1.000  C
  C185     1.0000 0.78280  0.91958  0.64321  Biso   1.000  C
  H189     1.0000 0.76490  0.91420  0.61390  Biso   1.000  H
  C186     1.0000 0.83114  0.93894  0.64097  Biso   1.000  C
  H190     1.0000 0.84510  0.94670  0.61010  Biso   1.000  H
  C187     1.0000 0.85830  0.94677  0.68301  Biso   1.000  C
  C188     1.0000 0.91108  0.96712  0.68161  Biso   1.000  C
  C189     1.0000 0.83673  0.93531  0.72883  Biso   1.000  C
  H191     1.0000 0.85500  0.94030  0.75800  Biso   1.000  H
  C190     1.0000 0.78812  0.91652  0.73160  Biso   1.000  C
  H192     1.0000 0.77380  0.90940  0.76250  Biso   1.000  H
  C191     1.0000 0.70568  0.84289  0.72131  Biso   1.000  C
  C192     1.0000 0.74187  0.80630  0.72120  Biso   1.000  C
  H193     1.0000 0.77040  0.81030  0.70160  Biso   1.000  H
  C193     1.0000 0.98960  0.95570  0.83710  Biso   1.000  C
  H194     1.0000 0.98240  0.92640  0.81950  Biso   1.000  H
  C194     1.0000 0.99000  0.95520  0.88850  Biso   1.000  C
  H195     1.0000 0.98360  0.92550  0.90570  Biso   1.000  H
  N18      1.0000 0.99300  0.94760  0.97570  Biso   1.000  N
  C195     1.0000 0.02590  0.04200  0.52980  Biso   1.000  C
  H196     1.0000 0.06020  0.04150  0.54180  Biso   1.000  H
  C196     1.0000 0.98800  0.04830  0.52760  Biso   1.000  C
  H197     1.0000 0.95520  0.05870  0.53940  Biso   1.000  H
  H198     1.0000 0.01230  0.07280  0.53940  Biso   1.000  H
  H199     1.0000 0.62950  0.08870  0.52920  Biso   1.000  H
  H200     1.0000 0.66770  0.15770  0.47080  Biso   1.000  H
  H201     1.0000 0.51840  0.15690  0.47120  Biso   1.000  H
  H202     1.0000 0.54780  0.23210  0.52970  Biso   1.000  H
  C197     1.0000 0.57620  0.13110  0.55060  Biso   1.000  C
  H203     1.0000 0.54500  0.13580  0.56860  Biso   1.000  H
  H204     1.0000 0.59580  0.10590  0.56800  Biso   1.000  H
  C198     1.0000 0.60520  0.18030  0.54920  Biso   1.000  C
  H205     1.0000 0.63770  0.17510  0.56480  Biso   1.000  H
  H206     1.0000 0.58720  0.20500  0.56880  Biso   1.000  H
  H207     1.0000 0.01000  0.07250  0.54180  Biso   1.000  H
  O37      1.0000 0.43508  0.98831  0.55125  Biso   1.000  O
  O38      1.0000 0.47451  0.06286  0.55119  Biso   1.000  O
  O39      1.0000 0.07023  0.02388  0.63985  Biso   1.000  O
  O40      1.0000 0.06813  0.02690  0.72306  Biso   1.000  O
  N19      1.0000 0.28785  0.11273  0.69113  Biso   1.000  N
  C199     1.0000 0.44054  0.03370  0.56452  Biso   1.000  C
  C200     1.0000 0.40149  0.05467  0.60023  Biso   1.000  C
  C201     1.0000 0.36537  0.02280  0.62103  Biso   1.000  C
  H208     1.0000 0.36570  0.98860  0.61400  Biso   1.000  H
  C202     1.0000 0.32931  0.04263  0.65196  Biso   1.000  C
  H209     1.0000 0.30570  0.02110  0.66620  Biso   1.000  H
  C203     1.0000 0.32679  0.09315  0.66271  Biso   1.000  C
  C204     1.0000 0.36334  0.12462  0.64235  Biso   1.000  C
  H210     1.0000 0.36310  0.15880  0.64980  Biso   1.000  H
  C205     1.0000 0.40019  0.10520  0.61098  Biso   1.000  C
  H211     1.0000 0.42410  0.12650  0.59720  Biso   1.000  H
  C206     1.0000 0.23888  0.09162  0.68825  Biso   1.000  C
  C207     1.0000 0.21720  0.08042  0.64321  Biso   1.000  C
  H212     1.0000 0.23510  0.08580  0.61390  Biso   1.000  H
  C208     1.0000 0.16886  0.06106  0.64097  Biso   1.000  C
  H213     1.0000 0.15490  0.05330  0.61010  Biso   1.000  H
  C209     1.0000 0.14170  0.05323  0.68301  Biso   1.000  C
  C210     1.0000 0.08892  0.03288  0.68161  Biso   1.000  C
  C211     1.0000 0.16327  0.06469  0.72883  Biso   1.000  C
  H214     1.0000 0.14500  0.05970  0.75800  Biso   1.000  H
  C212     1.0000 0.21188  0.08348  0.73160  Biso   1.000  C
  H215     1.0000 0.22620  0.09060  0.76250  Biso   1.000  H
  C213     1.0000 0.29432  0.15711  0.72131  Biso   1.000  C
  C214     1.0000 0.25813  0.19370  0.72120  Biso   1.000  C
  H216     1.0000 0.22960  0.18970  0.70160  Biso   1.000  H
  C215     1.0000 0.01040  0.04430  0.83710  Biso   1.000  C
  H217     1.0000 0.01760  0.07360  0.81950  Biso   1.000  H
  C216     1.0000 0.01000  0.04480  0.88850  Biso   1.000  C
  H218     1.0000 0.01640  0.07450  0.90570  Biso   1.000  H
  N20      1.0000 0.00700  0.05240  0.97570  Biso   1.000  N
  C217     1.0000 0.97410  0.95800  0.52980  Biso   1.000  C
  H219     1.0000 0.93980  0.95850  0.54180  Biso   1.000  H
  C218     1.0000 0.01200  0.95170  0.52760  Biso   1.000  C
  H220     1.0000 0.04480  0.94130  0.53940  Biso   1.000  H
  H221     1.0000 0.98770  0.92720  0.53940  Biso   1.000  H
  H222     1.0000 0.37050  0.91130  0.52920  Biso   1.000  H
  H223     1.0000 0.33230  0.84230  0.47080  Biso   1.000  H
  H224     1.0000 0.48160  0.84310  0.47120  Biso   1.000  H
  H225     1.0000 0.45220  0.76790  0.52970  Biso   1.000  H
  C219     1.0000 0.42380  0.86890  0.55060  Biso   1.000  C
  H226     1.0000 0.45500  0.86420  0.56860  Biso   1.000  H
  H227     1.0000 0.40420  0.89410  0.56800  Biso   1.000  H
  C220     1.0000 0.39480  0.81970  0.54920  Biso   1.000  C
  H228     1.0000 0.36230  0.82490  0.56480  Biso   1.000  H
  H229     1.0000 0.41280  0.79500  0.56880  Biso   1.000  H
  H230     1.0000 0.99000  0.92750  0.54180  Biso   1.000  H
  O41      1.0000 0.98831  0.56492  0.55125  Biso   1.000  O
  O42      1.0000 0.06286  0.52549  0.55119  Biso   1.000  O
  O43      1.0000 0.02388  0.92977  0.63985  Biso   1.000  O
  O44      1.0000 0.02690  0.93187  0.72306  Biso   1.000  O
  N21      1.0000 0.11273  0.71215  0.69113  Biso   1.000  N
  C221     1.0000 0.03370  0.55946  0.56452  Biso   1.000  C
  C222     1.0000 0.05467  0.59851  0.60023  Biso   1.000  C
  C223     1.0000 0.02280  0.63463  0.62103  Biso   1.000  C
  H231     1.0000 0.98860  0.63430  0.61400  Biso   1.000  H
  C224     1.0000 0.04263  0.67069  0.65196  Biso   1.000  C
  H232     1.0000 0.02110  0.69430  0.66620  Biso   1.000  H
  C225     1.0000 0.09315  0.67321  0.66271  Biso   1.000  C
  C226     1.0000 0.12462  0.63666  0.64235  Biso   1.000  C
  H233     1.0000 0.15880  0.63690  0.64980  Biso   1.000  H
  C227     1.0000 0.10520  0.59981  0.61098  Biso   1.000  C
  H234     1.0000 0.12650  0.57590  0.59720  Biso   1.000  H
  C228     1.0000 0.09162  0.76112  0.68825  Biso   1.000  C
  C229     1.0000 0.08042  0.78280  0.64321  Biso   1.000  C
  H235     1.0000 0.08580  0.76490  0.61390  Biso   1.000  H
  C230     1.0000 0.06106  0.83114  0.64097  Biso   1.000  C
  H236     1.0000 0.05330  0.84510  0.61010  Biso   1.000  H
  C231     1.0000 0.05323  0.85830  0.68301  Biso   1.000  C
  C232     1.0000 0.03288  0.91108  0.68161  Biso   1.000  C
  C233     1.0000 0.06469  0.83673  0.72883  Biso   1.000  C
  H237     1.0000 0.05970  0.85500  0.75800  Biso   1.000  H
  C234     1.0000 0.08348  0.78812  0.73160  Biso   1.000  C
  H238     1.0000 0.09060  0.77380  0.76250  Biso   1.000  H
  C235     1.0000 0.15711  0.70568  0.72131  Biso   1.000  C
  C236     1.0000 0.19370  0.74187  0.72120  Biso   1.000  C
  H239     1.0000 0.18970  0.77040  0.70160  Biso   1.000  H
  C237     1.0000 0.04430  0.98960  0.83710  Biso   1.000  C
  H240     1.0000 0.07360  0.98240  0.81950  Biso   1.000  H
  C238     1.0000 0.04480  0.99000  0.88850  Biso   1.000  C
  H241     1.0000 0.07450  0.98360  0.90570  Biso   1.000  H
  N22      1.0000 0.05240  0.99300  0.97570  Biso   1.000  N
  C239     1.0000 0.95800  0.02590  0.52980  Biso   1.000  C
  H242     1.0000 0.95850  0.06020  0.54180  Biso   1.000  H
  C240     1.0000 0.95170  0.98800  0.52760  Biso   1.000  C
  H243     1.0000 0.94130  0.95520  0.53940  Biso   1.000  H
  H244     1.0000 0.92720  0.01230  0.53940  Biso   1.000  H
  H245     1.0000 0.91130  0.62950  0.52920  Biso   1.000  H
  H246     1.0000 0.84230  0.66770  0.47080  Biso   1.000  H
  H247     1.0000 0.84310  0.51840  0.47120  Biso   1.000  H
  H248     1.0000 0.76790  0.54780  0.52970  Biso   1.000  H
  C241     1.0000 0.86890  0.57620  0.55060  Biso   1.000  C
  H249     1.0000 0.86420  0.54500  0.56860  Biso   1.000  H
  H250     1.0000 0.89410  0.59580  0.56800  Biso   1.000  H
  C242     1.0000 0.81970  0.60520  0.54920  Biso   1.000  C
  H251     1.0000 0.82490  0.63770  0.56480  Biso   1.000  H
  H252     1.0000 0.79500  0.58720  0.56880  Biso   1.000  H
  H253     1.0000 0.92750  0.01000  0.54180  Biso   1.000  H
  O45      1.0000 0.01169  0.43508  0.55125  Biso   1.000  O
  O46      1.0000 0.93714  0.47451  0.55119  Biso   1.000  O
  O47      1.0000 0.97612  0.07023  0.63985  Biso   1.000  O
  O48      1.0000 0.97310  0.06813  0.72306  Biso   1.000  O
  N23      1.0000 0.88727  0.28785  0.69113  Biso   1.000  N
  C243     1.0000 0.96630  0.44054  0.56452  Biso   1.000  C
  C244     1.0000 0.94533  0.40149  0.60023  Biso   1.000  C
  C245     1.0000 0.97720  0.36537  0.62103  Biso   1.000  C
  H254     1.0000 0.01140  0.36570  0.61400  Biso   1.000  H
  C246     1.0000 0.95737  0.32931  0.65196  Biso   1.000  C
  H255     1.0000 0.97890  0.30570  0.66620  Biso   1.000  H
  C247     1.0000 0.90685  0.32679  0.66271  Biso   1.000  C
  C248     1.0000 0.87538  0.36334  0.64235  Biso   1.000  C
  H256     1.0000 0.84120  0.36310  0.64980  Biso   1.000  H
  C249     1.0000 0.89480  0.40019  0.61098  Biso   1.000  C
  H257     1.0000 0.87350  0.42410  0.59720  Biso   1.000  H
  C250     1.0000 0.90838  0.23888  0.68825  Biso   1.000  C
  C251     1.0000 0.91958  0.21720  0.64321  Biso   1.000  C
  H258     1.0000 0.91420  0.23510  0.61390  Biso   1.000  H
  C252     1.0000 0.93894  0.16886  0.64097  Biso   1.000  C
  H259     1.0000 0.94670  0.15490  0.61010  Biso   1.000  H
  C253     1.0000 0.94677  0.14170  0.68301  Biso   1.000  C
  C254     1.0000 0.96712  0.08892  0.68161  Biso   1.000  C
  C255     1.0000 0.93531  0.16327  0.72883  Biso   1.000  C
  H260     1.0000 0.94030  0.14500  0.75800  Biso   1.000  H
  C256     1.0000 0.91652  0.21188  0.73160  Biso   1.000  C
  H261     1.0000 0.90940  0.22620  0.76250  Biso   1.000  H
  C257     1.0000 0.84289  0.29432  0.72131  Biso   1.000  C
  C258     1.0000 0.80630  0.25813  0.72120  Biso   1.000  C
  H262     1.0000 0.81030  0.22960  0.70160  Biso   1.000  H
  C259     1.0000 0.95570  0.01040  0.83710  Biso   1.000  C
  H263     1.0000 0.92640  0.01760  0.81950  Biso   1.000  H
  C260     1.0000 0.95520  0.01000  0.88850  Biso   1.000  C
  H264     1.0000 0.92550  0.01640  0.90570  Biso   1.000  H
  N24      1.0000 0.94760  0.00700  0.97570  Biso   1.000  N
  C261     1.0000 0.04200  0.97410  0.52980  Biso   1.000  C
  H265     1.0000 0.04150  0.93980  0.54180  Biso   1.000  H
  C262     1.0000 0.04830  0.01200  0.52760  Biso   1.000  C
  H266     1.0000 0.05870  0.04480  0.53940  Biso   1.000  H
  H267     1.0000 0.07280  0.98770  0.53940  Biso   1.000  H
  H268     1.0000 0.08870  0.37050  0.52920  Biso   1.000  H
  H269     1.0000 0.15770  0.33230  0.47080  Biso   1.000  H
  H270     1.0000 0.15690  0.48160  0.47120  Biso   1.000  H
  H271     1.0000 0.23210  0.45220  0.52970  Biso   1.000  H
  C263     1.0000 0.13110  0.42380  0.55060  Biso   1.000  C
  H272     1.0000 0.13580  0.45500  0.56860  Biso   1.000  H
  H273     1.0000 0.10590  0.40420  0.56800  Biso   1.000  H
  C264     1.0000 0.18030  0.39480  0.54920  Biso   1.000  C
  H274     1.0000 0.17510  0.36230  0.56480  Biso   1.000  H
  H275     1.0000 0.20500  0.41280  0.56880  Biso   1.000  H
  H276     1.0000 0.07250  0.99000  0.54180  Biso   1.000  H
  O49      1.0000 0.93508  0.51169  0.94875  Biso   1.000  O
  O50      1.0000 0.97451  0.43714  0.94881  Biso   1.000  O
  O51      1.0000 0.57023  0.47612  0.86015  Biso   1.000  O
  O52      1.0000 0.56813  0.47310  0.77694  Biso   1.000  O
  N25      1.0000 0.78785  0.38727  0.80887  Biso   1.000  N
  C265     1.0000 0.94054  0.46630  0.93548  Biso   1.000  C
  C266     1.0000 0.90149  0.44533  0.89977  Biso   1.000  C
  C267     1.0000 0.86537  0.47720  0.87897  Biso   1.000  C
  H277     1.0000 0.86570  0.51140  0.88600  Biso   1.000  H
  C268     1.0000 0.82931  0.45737  0.84804  Biso   1.000  C
  H278     1.0000 0.80570  0.47890  0.83380  Biso   1.000  H
  C269     1.0000 0.82679  0.40685  0.83729  Biso   1.000  C
  C270     1.0000 0.86334  0.37538  0.85765  Biso   1.000  C
  H279     1.0000 0.86310  0.34120  0.85020  Biso   1.000  H
  C271     1.0000 0.90019  0.39480  0.88902  Biso   1.000  C
  H280     1.0000 0.92410  0.37350  0.90280  Biso   1.000  H
  C272     1.0000 0.73888  0.40838  0.81175  Biso   1.000  C
  C273     1.0000 0.71720  0.41958  0.85679  Biso   1.000  C
  H281     1.0000 0.73510  0.41420  0.88610  Biso   1.000  H
  C274     1.0000 0.66886  0.43894  0.85903  Biso   1.000  C
  H282     1.0000 0.65490  0.44670  0.88990  Biso   1.000  H
  C275     1.0000 0.64170  0.44677  0.81699  Biso   1.000  C
  C276     1.0000 0.58892  0.46712  0.81839  Biso   1.000  C
  C277     1.0000 0.66327  0.43531  0.77117  Biso   1.000  C
  H283     1.0000 0.64500  0.44030  0.74200  Biso   1.000  H
  C278     1.0000 0.71188  0.41652  0.76840  Biso   1.000  C
  H284     1.0000 0.72620  0.40940  0.73750  Biso   1.000  H
  C279     1.0000 0.79432  0.34289  0.77869  Biso   1.000  C
  C280     1.0000 0.75813  0.30630  0.77880  Biso   1.000  C
  H285     1.0000 0.72960  0.31030  0.79840  Biso   1.000  H
  C281     1.0000 0.51040  0.45570  0.66290  Biso   1.000  C
  H286     1.0000 0.51760  0.42640  0.68050  Biso   1.000  H
  C282     1.0000 0.51000  0.45520  0.61150  Biso   1.000  C
  H287     1.0000 0.51640  0.42550  0.59430  Biso   1.000  H
  N26      1.0000 0.50700  0.44760  0.52430  Biso   1.000  N
  C283     1.0000 0.47410  0.54200  0.97020  Biso   1.000  C
  H288     1.0000 0.43980  0.54150  0.95820  Biso   1.000  H
  C284     1.0000 0.51200  0.54830  0.97240  Biso   1.000  C
  H289     1.0000 0.54480  0.55870  0.96060  Biso   1.000  H
  H290     1.0000 0.48770  0.57280  0.96060  Biso   1.000  H
  H291     1.0000 0.87050  0.58870  0.97080  Biso   1.000  H
  H292     1.0000 0.83230  0.65770  0.02920  Biso   1.000  H
  H293     1.0000 0.98160  0.65690  0.02880  Biso   1.000  H
  H294     1.0000 0.95220  0.73210  0.97030  Biso   1.000  H
  C285     1.0000 0.92380  0.63110  0.94940  Biso   1.000  C
  H295     1.0000 0.95500  0.63580  0.93140  Biso   1.000  H
  H296     1.0000 0.90420  0.60590  0.93200  Biso   1.000  H
  C286     1.0000 0.89480  0.68030  0.95080  Biso   1.000  C
  H297     1.0000 0.86230  0.67510  0.93520  Biso   1.000  H
  H298     1.0000 0.91280  0.70500  0.93120  Biso   1.000  H
  H299     1.0000 0.49000  0.57250  0.95820  Biso   1.000  H
  O53      1.0000 0.06492  0.48831  0.94875  Biso   1.000  O
  O54      1.0000 0.02549  0.56286  0.94881  Biso   1.000  O
  O55      1.0000 0.42977  0.52388  0.86015  Biso   1.000  O
  O56      1.0000 0.43187  0.52690  0.77694  Biso   1.000  O
  N27      1.0000 0.21215  0.61273  0.80887  Biso   1.000  N
  C287     1.0000 0.05946  0.53370  0.93548  Biso   1.000  C
  C288     1.0000 0.09851  0.55467  0.89977  Biso   1.000  C
  C289     1.0000 0.13463  0.52280  0.87897  Biso   1.000  C
  H300     1.0000 0.13430  0.48860  0.88600  Biso   1.000  H
  C290     1.0000 0.17069  0.54263  0.84804  Biso   1.000  C
  H301     1.0000 0.19430  0.52110  0.83380  Biso   1.000  H
  C291     1.0000 0.17321  0.59315  0.83729  Biso   1.000  C
  C292     1.0000 0.13666  0.62462  0.85765  Biso   1.000  C
  H302     1.0000 0.13690  0.65880  0.85020  Biso   1.000  H
  C293     1.0000 0.09981  0.60520  0.88902  Biso   1.000  C
  H303     1.0000 0.07590  0.62650  0.90280  Biso   1.000  H
  C294     1.0000 0.26112  0.59162  0.81175  Biso   1.000  C
  C295     1.0000 0.28280  0.58042  0.85679  Biso   1.000  C
  H304     1.0000 0.26490  0.58580  0.88610  Biso   1.000  H
  C296     1.0000 0.33114  0.56106  0.85903  Biso   1.000  C
  H305     1.0000 0.34510  0.55330  0.88990  Biso   1.000  H
  C297     1.0000 0.35830  0.55323  0.81699  Biso   1.000  C
  C298     1.0000 0.41108  0.53288  0.81839  Biso   1.000  C
  C299     1.0000 0.33673  0.56469  0.77117  Biso   1.000  C
  H306     1.0000 0.35500  0.55970  0.74200  Biso   1.000  H
  C300     1.0000 0.28812  0.58348  0.76840  Biso   1.000  C
  H307     1.0000 0.27380  0.59060  0.73750  Biso   1.000  H
  C301     1.0000 0.20568  0.65711  0.77869  Biso   1.000  C
  C302     1.0000 0.24187  0.69370  0.77880  Biso   1.000  C
  H308     1.0000 0.27040  0.68970  0.79840  Biso   1.000  H
  C303     1.0000 0.48960  0.54430  0.66290  Biso   1.000  C
  H309     1.0000 0.48240  0.57360  0.68050  Biso   1.000  H
  C304     1.0000 0.49000  0.54480  0.61150  Biso   1.000  C
  H310     1.0000 0.48360  0.57450  0.59430  Biso   1.000  H
  N28      1.0000 0.49300  0.55240  0.52430  Biso   1.000  N
  C305     1.0000 0.52590  0.45800  0.97020  Biso   1.000  C
  H311     1.0000 0.56020  0.45850  0.95820  Biso   1.000  H
  C306     1.0000 0.48800  0.45170  0.97240  Biso   1.000  C
  H312     1.0000 0.45520  0.44130  0.96060  Biso   1.000  H
  H313     1.0000 0.51230  0.42720  0.96060  Biso   1.000  H
  H314     1.0000 0.12950  0.41130  0.97080  Biso   1.000  H
  H315     1.0000 0.16770  0.34230  0.02920  Biso   1.000  H
  H316     1.0000 0.01840  0.34310  0.02880  Biso   1.000  H
  H317     1.0000 0.04780  0.26790  0.97030  Biso   1.000  H
  C307     1.0000 0.07620  0.36890  0.94940  Biso   1.000  C
  H318     1.0000 0.04500  0.36420  0.93140  Biso   1.000  H
  H319     1.0000 0.09580  0.39410  0.93200  Biso   1.000  H
  C308     1.0000 0.10520  0.31970  0.95080  Biso   1.000  C
  H320     1.0000 0.13770  0.32490  0.93520  Biso   1.000  H
  H321     1.0000 0.08720  0.29500  0.93120  Biso   1.000  H
  H322     1.0000 0.51000  0.42750  0.95820  Biso   1.000  H
  O57      1.0000 0.51169  0.06492  0.94875  Biso   1.000  O
  O58      1.0000 0.43714  0.02549  0.94881  Biso   1.000  O
  O59      1.0000 0.47612  0.42977  0.86015  Biso   1.000  O
  O60      1.0000 0.47310  0.43187  0.77694  Biso   1.000  O
  N29      1.0000 0.38727  0.21215  0.80887  Biso   1.000  N
  C309     1.0000 0.46630  0.05946  0.93548  Biso   1.000  C
  C310     1.0000 0.44533  0.09851  0.89977  Biso   1.000  C
  C311     1.0000 0.47720  0.13463  0.87897  Biso   1.000  C
  H323     1.0000 0.51140  0.13430  0.88600  Biso   1.000  H
  C312     1.0000 0.45737  0.17069  0.84804  Biso   1.000  C
  H324     1.0000 0.47890  0.19430  0.83380  Biso   1.000  H
  C313     1.0000 0.40685  0.17321  0.83729  Biso   1.000  C
  C314     1.0000 0.37538  0.13666  0.85765  Biso   1.000  C
  H325     1.0000 0.34120  0.13690  0.85020  Biso   1.000  H
  C315     1.0000 0.39480  0.09981  0.88902  Biso   1.000  C
  H326     1.0000 0.37350  0.07590  0.90280  Biso   1.000  H
  C316     1.0000 0.40838  0.26112  0.81175  Biso   1.000  C
  C317     1.0000 0.41958  0.28280  0.85679  Biso   1.000  C
  H327     1.0000 0.41420  0.26490  0.88610  Biso   1.000  H
  C318     1.0000 0.43894  0.33114  0.85903  Biso   1.000  C
  H328     1.0000 0.44670  0.34510  0.88990  Biso   1.000  H
  C319     1.0000 0.44677  0.35830  0.81699  Biso   1.000  C
  C320     1.0000 0.46712  0.41108  0.81839  Biso   1.000  C
  C321     1.0000 0.43531  0.33673  0.77117  Biso   1.000  C
  H329     1.0000 0.44030  0.35500  0.74200  Biso   1.000  H
  C322     1.0000 0.41652  0.28812  0.76840  Biso   1.000  C
  H330     1.0000 0.40940  0.27380  0.73750  Biso   1.000  H
  C323     1.0000 0.34289  0.20568  0.77869  Biso   1.000  C
  C324     1.0000 0.30630  0.24187  0.77880  Biso   1.000  C
  H331     1.0000 0.31030  0.27040  0.79840  Biso   1.000  H
  C325     1.0000 0.45570  0.48960  0.66290  Biso   1.000  C
  H332     1.0000 0.42640  0.48240  0.68050  Biso   1.000  H
  C326     1.0000 0.45520  0.49000  0.61150  Biso   1.000  C
  H333     1.0000 0.42550  0.48360  0.59430  Biso   1.000  H
  N30      1.0000 0.44760  0.49300  0.52430  Biso   1.000  N
  C327     1.0000 0.54200  0.52590  0.97020  Biso   1.000  C
  H334     1.0000 0.54150  0.56020  0.95820  Biso   1.000  H
  C328     1.0000 0.54830  0.48800  0.97240  Biso   1.000  C
  H335     1.0000 0.55870  0.45520  0.96060  Biso   1.000  H
  H336     1.0000 0.57280  0.51230  0.96060  Biso   1.000  H
  H337     1.0000 0.58870  0.12950  0.97080  Biso   1.000  H
  H338     1.0000 0.65770  0.16770  0.02920  Biso   1.000  H
  H339     1.0000 0.65690  0.01840  0.02880  Biso   1.000  H
  H340     1.0000 0.73210  0.04780  0.97030  Biso   1.000  H
  C329     1.0000 0.63110  0.07620  0.94940  Biso   1.000  C
  H341     1.0000 0.63580  0.04500  0.93140  Biso   1.000  H
  H342     1.0000 0.60590  0.09580  0.93200  Biso   1.000  H
  C330     1.0000 0.68030  0.10520  0.95080  Biso   1.000  C
  H343     1.0000 0.67510  0.13770  0.93520  Biso   1.000  H
  H344     1.0000 0.70500  0.08720  0.93120  Biso   1.000  H
  H345     1.0000 0.57250  0.51000  0.95820  Biso   1.000  H
  O61      1.0000 0.48831  0.93508  0.94875  Biso   1.000  O
  O62      1.0000 0.56286  0.97451  0.94881  Biso   1.000  O
  O63      1.0000 0.52388  0.57023  0.86015  Biso   1.000  O
  O64      1.0000 0.52690  0.56813  0.77694  Biso   1.000  O
  N31      1.0000 0.61273  0.78785  0.80887  Biso   1.000  N
  C331     1.0000 0.53370  0.94054  0.93548  Biso   1.000  C
  C332     1.0000 0.55467  0.90149  0.89977  Biso   1.000  C
  C333     1.0000 0.52280  0.86537  0.87897  Biso   1.000  C
  H346     1.0000 0.48860  0.86570  0.88600  Biso   1.000  H
  C334     1.0000 0.54263  0.82931  0.84804  Biso   1.000  C
  H347     1.0000 0.52110  0.80570  0.83380  Biso   1.000  H
  C335     1.0000 0.59315  0.82679  0.83729  Biso   1.000  C
  C336     1.0000 0.62462  0.86334  0.85765  Biso   1.000  C
  H348     1.0000 0.65880  0.86310  0.85020  Biso   1.000  H
  C337     1.0000 0.60520  0.90019  0.88902  Biso   1.000  C
  H349     1.0000 0.62650  0.92410  0.90280  Biso   1.000  H
  C338     1.0000 0.59162  0.73888  0.81175  Biso   1.000  C
  C339     1.0000 0.58042  0.71720  0.85679  Biso   1.000  C
  H350     1.0000 0.58580  0.73510  0.88610  Biso   1.000  H
  C340     1.0000 0.56106  0.66886  0.85903  Biso   1.000  C
  H351     1.0000 0.55330  0.65490  0.88990  Biso   1.000  H
  C341     1.0000 0.55323  0.64170  0.81699  Biso   1.000  C
  C342     1.0000 0.53288  0.58892  0.81839  Biso   1.000  C
  C343     1.0000 0.56469  0.66327  0.77117  Biso   1.000  C
  H352     1.0000 0.55970  0.64500  0.74200  Biso   1.000  H
  C344     1.0000 0.58348  0.71188  0.76840  Biso   1.000  C
  H353     1.0000 0.59060  0.72620  0.73750  Biso   1.000  H
  C345     1.0000 0.65711  0.79432  0.77869  Biso   1.000  C
  C346     1.0000 0.69370  0.75813  0.77880  Biso   1.000  C
  H354     1.0000 0.68970  0.72960  0.79840  Biso   1.000  H
  C347     1.0000 0.54430  0.51040  0.66290  Biso   1.000  C
  H355     1.0000 0.57360  0.51760  0.68050  Biso   1.000  H
  C348     1.0000 0.54480  0.51000  0.61150  Biso   1.000  C
  H356     1.0000 0.57450  0.51640  0.59430  Biso   1.000  H
  N32      1.0000 0.55240  0.50700  0.52430  Biso   1.000  N
  C349     1.0000 0.45800  0.47410  0.97020  Biso   1.000  C
  H357     1.0000 0.45850  0.43980  0.95820  Biso   1.000  H
  C350     1.0000 0.45170  0.51200  0.97240  Biso   1.000  C
  H358     1.0000 0.44130  0.54480  0.96060  Biso   1.000  H
  H359     1.0000 0.42720  0.48770  0.96060  Biso   1.000  H
  H360     1.0000 0.41130  0.87050  0.97080  Biso   1.000  H
  H361     1.0000 0.34230  0.83230  0.02920  Biso   1.000  H
  H362     1.0000 0.34310  0.98160  0.02880  Biso   1.000  H
  H363     1.0000 0.26790  0.95220  0.97030  Biso   1.000  H
  C351     1.0000 0.36890  0.92380  0.94940  Biso   1.000  C
  H364     1.0000 0.36420  0.95500  0.93140  Biso   1.000  H
  H365     1.0000 0.39410  0.90420  0.93200  Biso   1.000  H
  C352     1.0000 0.31970  0.89480  0.95080  Biso   1.000  C
  H366     1.0000 0.32490  0.86230  0.93520  Biso   1.000  H
  H367     1.0000 0.29500  0.91280  0.93120  Biso   1.000  H
  H368     1.0000 0.42750  0.49000  0.95820  Biso   1.000  H
  Cu1      1.0000 0.47640  0.95629  0.50000  Biso   1.000  Cu
  N33      1.0000 0.43450  0.88620  0.50000  Biso   1.000  N
  C353     1.0000 0.38040  0.89220  0.50000  Biso   1.000  C
  C354     1.0000 0.35380  0.84390  0.50000  Biso   1.000  C
  C355     1.0000 0.45960  0.84100  0.50000  Biso   1.000  C
  C356     1.0000 0.44210  0.78610  0.50000  Biso   1.000  C
  N34      1.0000 0.38700  0.79990  0.50000  Biso   1.000  N
  Cu2      1.0000 0.52360  0.04371  0.50000  Biso   1.000  Cu
  N35      1.0000 0.56550  0.11380  0.50000  Biso   1.000  N
  C357     1.0000 0.61960  0.10780  0.50000  Biso   1.000  C
  C358     1.0000 0.64620  0.15610  0.50000  Biso   1.000  C
  C359     1.0000 0.54040  0.15900  0.50000  Biso   1.000  C
  C360     1.0000 0.55790  0.21390  0.50000  Biso   1.000  C
  N36      1.0000 0.61300  0.20010  0.50000  Biso   1.000  N
  Cu3      1.0000 0.04371  0.47640  0.50000  Biso   1.000  Cu
  N37      1.0000 0.11380  0.43450  0.50000  Biso   1.000  N
  C361     1.0000 0.10780  0.38040  0.50000  Biso   1.000  C
  C362     1.0000 0.15610  0.35380  0.50000  Biso   1.000  C
  C363     1.0000 0.15900  0.45960  0.50000  Biso   1.000  C
  C364     1.0000 0.21390  0.44210  0.50000  Biso   1.000  C
  N38      1.0000 0.20010  0.38700  0.50000  Biso   1.000  N
  Cu4      1.0000 0.95629  0.52360  0.50000  Biso   1.000  Cu
  N39      1.0000 0.88620  0.56550  0.50000  Biso   1.000  N
  C365     1.0000 0.89220  0.61960  0.50000  Biso   1.000  C
  C366     1.0000 0.84390  0.64620  0.50000  Biso   1.000  C
  C367     1.0000 0.84100  0.54040  0.50000  Biso   1.000  C
  C368     1.0000 0.78610  0.55790  0.50000  Biso   1.000  C
  N40      1.0000 0.79990  0.61300  0.50000  Biso   1.000  N
  Cu5      1.0000 0.02360  0.45629  0.00000  Biso   1.000  Cu
  N41      1.0000 0.06550  0.38620  0.00000  Biso   1.000  N
  C369     1.0000 0.11960  0.39220  0.00000  Biso   1.000  C
  C370     1.0000 0.14620  0.34390  0.00000  Biso   1.000  C
  C371     1.0000 0.04040  0.34100  0.00000  Biso   1.000  C
  C372     1.0000 0.05790  0.28610  0.00000  Biso   1.000  C
  N42      1.0000 0.11300  0.29990  0.00000  Biso   1.000  N
  Cu6      1.0000 0.97640  0.54371  0.00000  Biso   1.000  Cu
  N43      1.0000 0.93450  0.61380  0.00000  Biso   1.000  N
  C373     1.0000 0.88040  0.60780  0.00000  Biso   1.000  C
  C374     1.0000 0.85380  0.65610  0.00000  Biso   1.000  C
  C375     1.0000 0.95960  0.65900  0.00000  Biso   1.000  C
  C376     1.0000 0.94210  0.71390  0.00000  Biso   1.000  C
  N44      1.0000 0.88700  0.70010  0.00000  Biso   1.000  N
  Cu7      1.0000 0.45629  0.97640  0.00000  Biso   1.000  Cu
  N45      1.0000 0.38620  0.93450  0.00000  Biso   1.000  N
  C377     1.0000 0.39220  0.88040  0.00000  Biso   1.000  C
  C378     1.0000 0.34390  0.85380  0.00000  Biso   1.000  C
  C379     1.0000 0.34100  0.95960  0.00000  Biso   1.000  C
  C380     1.0000 0.28610  0.94210  0.00000  Biso   1.000  C
  N46      1.0000 0.29990  0.88700  0.00000  Biso   1.000  N
  Cu8      1.0000 0.54371  0.02360  0.00000  Biso   1.000  Cu
  N47      1.0000 0.61380  0.06550  0.00000  Biso   1.000  N
  C381     1.0000 0.60780  0.11960  0.00000  Biso   1.000  C
  C382     1.0000 0.65610  0.14620  0.00000  Biso   1.000  C
  C383     1.0000 0.65900  0.04040  0.00000  Biso   1.000  C
  C384     1.0000 0.71390  0.05790  0.00000  Biso   1.000  C
  N48      1.0000 0.70010  0.11300  0.00000  Biso   1.000  N
  Cu9      1.0000 0.00000  0.00000  0.36901  Biso   1.000  Cu
  Cu10     1.0000 0.00000  0.00000  0.26983  Biso   1.000  Cu
  N49      1.0000 0.00000  0.00000  0.45124  Biso   1.000  N
  N50      1.0000 0.00000  0.00000  0.18840  Biso   1.000  N
  C385     1.0000 0.00000  0.00000  0.08500  Biso   1.000  C
  C386     1.0000 0.00000  0.00000  0.03430  Biso   1.000  C
  Cu11     1.0000 0.50000  0.50000  0.13099  Biso   1.000  Cu
  Cu12     1.0000 0.50000  0.50000  0.23017  Biso   1.000  Cu
  N51      1.0000 0.50000  0.50000  0.04876  Biso   1.000  N
  N52      1.0000 0.50000  0.50000  0.31160  Biso   1.000  N
  C387     1.0000 0.50000  0.50000  0.41500  Biso   1.000  C
  C388     1.0000 0.50000  0.50000  0.46570  Biso   1.000  C
  Cu13     1.0000 0.00000  0.00000  0.63099  Biso   1.000  Cu
  Cu14     1.0000 0.00000  0.00000  0.73017  Biso   1.000  Cu
  N53      1.0000 0.00000  0.00000  0.54876  Biso   1.000  N
  N54      1.0000 0.00000  0.00000  0.81160  Biso   1.000  N
  C389     1.0000 0.00000  0.00000  0.91500  Biso   1.000  C
  C390     1.0000 0.00000  0.00000  0.96570  Biso   1.000  C
  Cu15     1.0000 0.50000  0.50000  0.86901  Biso   1.000  Cu
  Cu16     1.0000 0.50000  0.50000  0.76983  Biso   1.000  Cu
  N55      1.0000 0.50000  0.50000  0.95124  Biso   1.000  N
  N56      1.0000 0.50000  0.50000  0.68840  Biso   1.000  N
  C391     1.0000 0.50000  0.50000  0.58500  Biso   1.000  C
  C392     1.0000 0.50000  0.50000  0.53430  Biso   1.000  C
  C393     1.0000 0.33672  0.16328  0.25000  Biso   1.000  C
  H369     1.0000 0.36140  0.13860  0.25000  Biso   1.000  H
  C394     1.0000 0.26350  0.23650  0.25000  Biso   1.000  C
  H370     1.0000 0.23880  0.26120  0.25000  Biso   1.000  H
  C395     1.0000 0.66328  0.83672  0.25000  Biso   1.000  C
  H371     1.0000 0.63860  0.86140  0.25000  Biso   1.000  H
  C396     1.0000 0.73650  0.76350  0.25000  Biso   1.000  C
  H372     1.0000 0.76120  0.73880  0.25000  Biso   1.000  H
  C397     1.0000 0.83672  0.33672  0.25000  Biso   1.000  C
  H373     1.0000 0.86140  0.36140  0.25000  Biso   1.000  H
  C398     1.0000 0.76350  0.26350  0.25000  Biso   1.000  C
  H374     1.0000 0.73880  0.23880  0.25000  Biso   1.000  H
  C399     1.0000 0.16328  0.66328  0.25000  Biso   1.000  C
  H375     1.0000 0.13860  0.63860  0.25000  Biso   1.000  H
  C400     1.0000 0.23650  0.73650  0.25000  Biso   1.000  C
  H376     1.0000 0.26120  0.76120  0.25000  Biso   1.000  H
  C401     1.0000 0.66328  0.83672  0.75000  Biso   1.000  C
  H377     1.0000 0.63860  0.86140  0.75000  Biso   1.000  H
  C402     1.0000 0.73650  0.76350  0.75000  Biso   1.000  C
  H378     1.0000 0.76120  0.73880  0.75000  Biso   1.000  H
  C403     1.0000 0.33672  0.16328  0.75000  Biso   1.000  C
  H379     1.0000 0.36140  0.13860  0.75000  Biso   1.000  H
  C404     1.0000 0.26350  0.23650  0.75000  Biso   1.000  C
  H380     1.0000 0.23880  0.26120  0.75000  Biso   1.000  H
  C405     1.0000 0.16328  0.66328  0.75000  Biso   1.000  C
  H381     1.0000 0.13860  0.63860  0.75000  Biso   1.000  H
  C406     1.0000 0.23650  0.73650  0.75000  Biso   1.000  C
  H382     1.0000 0.26120  0.76120  0.75000  Biso   1.000  H
  C407     1.0000 0.83672  0.33672  0.75000  Biso   1.000  C
  H383     1.0000 0.86140  0.36140  0.75000  Biso   1.000  H
  C408     1.0000 0.76350  0.26350  0.75000  Biso   1.000  C
  H384     1.0000 0.73880  0.23880  0.75000  Biso   1.000  H
