data_image0
_cell_length_a       26.69
_cell_length_b       26.69
_cell_length_c       26.38
_cell_angle_alpha    90
_cell_angle_beta     90
_cell_angle_gamma    90

_symmetry_space_group_name_H-M    "P 1"
_symmetry_int_tables_number       1

loop_
  _symmetry_equiv_pos_as_xyz
  'x, y, z'

loop_
  _atom_site_label
  _atom_site_occupancy
  _atom_site_fract_x
  _atom_site_fract_y
  _atom_site_fract_z
  _atom_site_thermal_displace_type
  _atom_site_B_iso_or_equiv
  _atom_site_type_symbol
  N1       1.0000 0.71329  0.88605  0.19129  Biso   1.000  N
  O1       1.0000 0.93249  0.97246  0.22647  Biso   1.000  O
  O2       1.0000 0.93000  0.97682  0.14201  Biso   1.000  O
  O3       1.0000 0.56517  0.01214  0.05223  Biso   1.000  O
  O4       1.0000 0.52587  0.93712  0.05185  Biso   1.000  O
  C1       1.0000 0.91126  0.96717  0.18445  Biso   1.000  C
  C2       1.0000 0.85886  0.94677  0.18544  Biso   1.000  C
  C3       1.0000 0.83226  0.93929  0.14161  Biso   1.000  C
  H1       1.0000 0.84660  0.94740  0.11060  Biso   1.000  H
  C4       1.0000 0.78413  0.91968  0.14318  Biso   1.000  C
  H2       1.0000 0.76640  0.91450  0.11330  Biso   1.000  H
  C5       1.0000 0.76258  0.90791  0.18940  Biso   1.000  C
  C6       1.0000 0.78867  0.91557  0.23337  Biso   1.000  C
  H3       1.0000 0.77400  0.90810  0.26440  Biso   1.000  H
  C7       1.0000 0.83729  0.93455  0.23158  Biso   1.000  C
  H4       1.0000 0.85530  0.93900  0.26140  Biso   1.000  H
  C8       1.0000 0.67474  0.90635  0.16201  Biso   1.000  C
  C9       1.0000 0.67243  0.95683  0.15168  Biso   1.000  C
  H5       1.0000 0.69650  0.97800  0.16550  Biso   1.000  H
  C10      1.0000 0.63577  0.97662  0.12170  Biso   1.000  C
  H6       1.0000 0.63510  0.01090  0.11540  Biso   1.000  H
  C11      1.0000 0.59952  0.94569  0.10046  Biso   1.000  C
  C12      1.0000 0.60062  0.89511  0.11109  Biso   1.000  C
  H7       1.0000 0.57600  0.87430  0.09780  Biso   1.000  H
  C13      1.0000 0.63785  0.87508  0.14113  Biso   1.000  C
  H8       1.0000 0.63850  0.84080  0.14760  Biso   1.000  H
  C14      1.0000 0.56018  0.96659  0.06520  Biso   1.000  C
  C15      1.0000 0.70695  0.84220  0.22073  Biso   1.000  C
  C16      1.0000 0.74352  0.80580  0.22120  Biso   1.000  C
  H9       1.0000 0.77250  0.80990  0.20210  Biso   1.000  H
  C17      1.0000 0.96860  0.95850  0.02880  Biso   1.000  C
  H10      1.0000 0.93450  0.96220  0.04100  Biso   1.000  H
  H11      1.0000 0.98140  0.92670  0.04100  Biso   1.000  H
  H12      1.0000 0.51380  0.15810  0.02960  Biso   1.000  H
  H13      1.0000 0.55210  0.22590  0.02970  Biso   1.000  H
  H14      1.0000 0.62850  0.08870  0.02970  Biso   1.000  H
  H15      1.0000 0.66760  0.15420  0.97040  Biso   1.000  H
  C18      1.0000 0.57530  0.13010  0.05160  Biso   1.000  C
  H16      1.0000 0.59430  0.10460  0.06930  Biso   1.000  H
  H17      1.0000 0.54450  0.13630  0.07000  Biso   1.000  H
  C19      1.0000 0.60540  0.17760  0.04690  Biso   1.000  C
  H18      1.0000 0.58780  0.20270  0.06660  Biso   1.000  H
  H19      1.0000 0.63680  0.17140  0.06430  Biso   1.000  H
  C20      1.0000 0.04610  0.00100  0.47370  Biso   1.000  C
  H20      1.0000 0.07360  0.98140  0.48320  Biso   1.000  H
  C21      1.0000 0.03200  0.03400  0.47370  Biso   1.000  C
  H21      1.0000 0.03640  0.06700  0.48310  Biso   1.000  H
  N2       1.0000 0.00710  0.01420  0.31390  Biso   1.000  N
  C22      1.0000 0.99980  0.98750  0.35990  Biso   1.000  C
  H22      1.0000 0.98810  0.95480  0.36290  Biso   1.000  H
  N3       1.0000 0.01340  0.01960  0.40060  Biso   1.000  N
  C23      1.0000 0.02910  0.06610  0.37980  Biso   1.000  C
  H23      1.0000 0.04000  0.09380  0.39800  Biso   1.000  H
  C24      1.0000 0.02520  0.06270  0.32620  Biso   1.000  C
  H24      1.0000 0.03320  0.08790  0.30320  Biso   1.000  H
  C25      1.0000 0.94900  0.99360  0.02900  Biso   1.000  C
  H25      1.0000 0.92790  0.02060  0.04130  Biso   1.000  H
  N4       1.0000 0.28671  0.11395  0.19129  Biso   1.000  N
  O5       1.0000 0.06751  0.02754  0.22647  Biso   1.000  O
  O6       1.0000 0.07000  0.02318  0.14201  Biso   1.000  O
  O7       1.0000 0.43483  0.98786  0.05223  Biso   1.000  O
  O8       1.0000 0.47413  0.06288  0.05185  Biso   1.000  O
  C26      1.0000 0.08874  0.03283  0.18445  Biso   1.000  C
  C27      1.0000 0.14114  0.05323  0.18544  Biso   1.000  C
  C28      1.0000 0.16774  0.06071  0.14161  Biso   1.000  C
  H26      1.0000 0.15340  0.05260  0.11060  Biso   1.000  H
  C29      1.0000 0.21587  0.08032  0.14318  Biso   1.000  C
  H27      1.0000 0.23360  0.08550  0.11330  Biso   1.000  H
  C30      1.0000 0.23742  0.09209  0.18940  Biso   1.000  C
  C31      1.0000 0.21133  0.08443  0.23337  Biso   1.000  C
  H28      1.0000 0.22600  0.09190  0.26440  Biso   1.000  H
  C32      1.0000 0.16271  0.06545  0.23158  Biso   1.000  C
  H29      1.0000 0.14470  0.06100  0.26140  Biso   1.000  H
  C33      1.0000 0.32526  0.09365  0.16201  Biso   1.000  C
  C34      1.0000 0.32757  0.04317  0.15168  Biso   1.000  C
  H30      1.0000 0.30350  0.02200  0.16550  Biso   1.000  H
  C35      1.0000 0.36423  0.02338  0.12170  Biso   1.000  C
  H31      1.0000 0.36490  0.98910  0.11540  Biso   1.000  H
  C36      1.0000 0.40048  0.05431  0.10046  Biso   1.000  C
  C37      1.0000 0.39938  0.10489  0.11109  Biso   1.000  C
  H32      1.0000 0.42400  0.12570  0.09780  Biso   1.000  H
  C38      1.0000 0.36215  0.12492  0.14113  Biso   1.000  C
  H33      1.0000 0.36150  0.15920  0.14760  Biso   1.000  H
  C39      1.0000 0.43982  0.03341  0.06520  Biso   1.000  C
  C40      1.0000 0.29305  0.15780  0.22073  Biso   1.000  C
  C41      1.0000 0.25648  0.19420  0.22120  Biso   1.000  C
  H34      1.0000 0.22750  0.19010  0.20210  Biso   1.000  H
  C42      1.0000 0.03140  0.04150  0.02880  Biso   1.000  C
  H35      1.0000 0.06550  0.03780  0.04100  Biso   1.000  H
  H36      1.0000 0.01860  0.07330  0.04100  Biso   1.000  H
  H37      1.0000 0.48620  0.84190  0.02960  Biso   1.000  H
  H38      1.0000 0.44790  0.77410  0.02970  Biso   1.000  H
  H39      1.0000 0.37150  0.91130  0.02970  Biso   1.000  H
  H40      1.0000 0.33240  0.84580  0.97040  Biso   1.000  H
  C43      1.0000 0.42470  0.86990  0.05160  Biso   1.000  C
  H41      1.0000 0.40570  0.89540  0.06930  Biso   1.000  H
  H42      1.0000 0.45550  0.86370  0.07000  Biso   1.000  H
  C44      1.0000 0.39460  0.82240  0.04690  Biso   1.000  C
  H43      1.0000 0.41220  0.79730  0.06660  Biso   1.000  H
  H44      1.0000 0.36320  0.82860  0.06430  Biso   1.000  H
  C45      1.0000 0.95390  0.99900  0.47370  Biso   1.000  C
  H45      1.0000 0.92640  0.01860  0.48320  Biso   1.000  H
  C46      1.0000 0.96800  0.96600  0.47370  Biso   1.000  C
  H46      1.0000 0.96360  0.93300  0.48310  Biso   1.000  H
  N5       1.0000 0.99290  0.98580  0.31390  Biso   1.000  N
  C47      1.0000 0.00020  0.01250  0.35990  Biso   1.000  C
  H47      1.0000 0.01190  0.04520  0.36290  Biso   1.000  H
  N6       1.0000 0.98660  0.98040  0.40060  Biso   1.000  N
  C48      1.0000 0.97090  0.93390  0.37980  Biso   1.000  C
  H48      1.0000 0.96000  0.90620  0.39800  Biso   1.000  H
  C49      1.0000 0.97480  0.93730  0.32620  Biso   1.000  C
  H49      1.0000 0.96680  0.91210  0.30320  Biso   1.000  H
  C50      1.0000 0.05100  0.00640  0.02900  Biso   1.000  C
  H50      1.0000 0.07210  0.97940  0.04130  Biso   1.000  H
  N7       1.0000 0.11395  0.71329  0.19129  Biso   1.000  N
  O9       1.0000 0.02754  0.93249  0.22647  Biso   1.000  O
  O10      1.0000 0.02318  0.93000  0.14201  Biso   1.000  O
  O11      1.0000 0.98786  0.56517  0.05223  Biso   1.000  O
  O12      1.0000 0.06288  0.52587  0.05185  Biso   1.000  O
  C51      1.0000 0.03283  0.91126  0.18445  Biso   1.000  C
  C52      1.0000 0.05323  0.85886  0.18544  Biso   1.000  C
  C53      1.0000 0.06071  0.83226  0.14161  Biso   1.000  C
  H51      1.0000 0.05260  0.84660  0.11060  Biso   1.000  H
  C54      1.0000 0.08032  0.78413  0.14318  Biso   1.000  C
  H52      1.0000 0.08550  0.76640  0.11330  Biso   1.000  H
  C55      1.0000 0.09209  0.76258  0.18940  Biso   1.000  C
  C56      1.0000 0.08443  0.78867  0.23337  Biso   1.000  C
  H53      1.0000 0.09190  0.77400  0.26440  Biso   1.000  H
  C57      1.0000 0.06545  0.83729  0.23158  Biso   1.000  C
  H54      1.0000 0.06100  0.85530  0.26140  Biso   1.000  H
  C58      1.0000 0.09365  0.67474  0.16201  Biso   1.000  C
  C59      1.0000 0.04317  0.67243  0.15168  Biso   1.000  C
  H55      1.0000 0.02200  0.69650  0.16550  Biso   1.000  H
  C60      1.0000 0.02338  0.63577  0.12170  Biso   1.000  C
  H56      1.0000 0.98910  0.63510  0.11540  Biso   1.000  H
  C61      1.0000 0.05431  0.59952  0.10046  Biso   1.000  C
  C62      1.0000 0.10489  0.60062  0.11109  Biso   1.000  C
  H57      1.0000 0.12570  0.57600  0.09780  Biso   1.000  H
  C63      1.0000 0.12492  0.63785  0.14113  Biso   1.000  C
  H58      1.0000 0.15920  0.63850  0.14760  Biso   1.000  H
  C64      1.0000 0.03341  0.56018  0.06520  Biso   1.000  C
  C65      1.0000 0.15780  0.70695  0.22073  Biso   1.000  C
  C66      1.0000 0.19420  0.74352  0.22120  Biso   1.000  C
  H59      1.0000 0.19010  0.77250  0.20210  Biso   1.000  H
  C67      1.0000 0.04150  0.96860  0.02880  Biso   1.000  C
  H60      1.0000 0.03780  0.93450  0.04100  Biso   1.000  H
  H61      1.0000 0.07330  0.98140  0.04100  Biso   1.000  H
  H62      1.0000 0.84190  0.51380  0.02960  Biso   1.000  H
  H63      1.0000 0.77410  0.55210  0.02970  Biso   1.000  H
  H64      1.0000 0.91130  0.62850  0.02970  Biso   1.000  H
  H65      1.0000 0.84580  0.66760  0.97040  Biso   1.000  H
  C68      1.0000 0.86990  0.57530  0.05160  Biso   1.000  C
  H66      1.0000 0.89540  0.59430  0.06930  Biso   1.000  H
  H67      1.0000 0.86370  0.54450  0.07000  Biso   1.000  H
  C69      1.0000 0.82240  0.60540  0.04690  Biso   1.000  C
  H68      1.0000 0.79730  0.58780  0.06660  Biso   1.000  H
  H69      1.0000 0.82860  0.63680  0.06430  Biso   1.000  H
  C70      1.0000 0.99900  0.04610  0.47370  Biso   1.000  C
  H70      1.0000 0.01860  0.07360  0.48320  Biso   1.000  H
  C71      1.0000 0.96600  0.03200  0.47370  Biso   1.000  C
  H71      1.0000 0.93300  0.03640  0.48310  Biso   1.000  H
  N8       1.0000 0.98580  0.00710  0.31390  Biso   1.000  N
  C72      1.0000 0.01250  0.99980  0.35990  Biso   1.000  C
  H72      1.0000 0.04520  0.98810  0.36290  Biso   1.000  H
  N9       1.0000 0.98040  0.01340  0.40060  Biso   1.000  N
  C73      1.0000 0.93390  0.02910  0.37980  Biso   1.000  C
  H73      1.0000 0.90620  0.04000  0.39800  Biso   1.000  H
  C74      1.0000 0.93730  0.02520  0.32620  Biso   1.000  C
  H74      1.0000 0.91210  0.03320  0.30320  Biso   1.000  H
  C75      1.0000 0.00640  0.94900  0.02900  Biso   1.000  C
  H75      1.0000 0.97940  0.92790  0.04130  Biso   1.000  H
  N10      1.0000 0.88605  0.28671  0.19129  Biso   1.000  N
  O13      1.0000 0.97246  0.06751  0.22647  Biso   1.000  O
  O14      1.0000 0.97682  0.07000  0.14201  Biso   1.000  O
  O15      1.0000 0.01214  0.43483  0.05223  Biso   1.000  O
  O16      1.0000 0.93712  0.47413  0.05185  Biso   1.000  O
  C76      1.0000 0.96717  0.08874  0.18445  Biso   1.000  C
  C77      1.0000 0.94677  0.14114  0.18544  Biso   1.000  C
  C78      1.0000 0.93929  0.16774  0.14161  Biso   1.000  C
  H76      1.0000 0.94740  0.15340  0.11060  Biso   1.000  H
  C79      1.0000 0.91968  0.21587  0.14318  Biso   1.000  C
  H77      1.0000 0.91450  0.23360  0.11330  Biso   1.000  H
  C80      1.0000 0.90791  0.23742  0.18940  Biso   1.000  C
  C81      1.0000 0.91557  0.21133  0.23337  Biso   1.000  C
  H78      1.0000 0.90810  0.22600  0.26440  Biso   1.000  H
  C82      1.0000 0.93455  0.16271  0.23158  Biso   1.000  C
  H79      1.0000 0.93900  0.14470  0.26140  Biso   1.000  H
  C83      1.0000 0.90635  0.32526  0.16201  Biso   1.000  C
  C84      1.0000 0.95683  0.32757  0.15168  Biso   1.000  C
  H80      1.0000 0.97800  0.30350  0.16550  Biso   1.000  H
  C85      1.0000 0.97662  0.36423  0.12170  Biso   1.000  C
  H81      1.0000 0.01090  0.36490  0.11540  Biso   1.000  H
  C86      1.0000 0.94569  0.40048  0.10046  Biso   1.000  C
  C87      1.0000 0.89511  0.39938  0.11109  Biso   1.000  C
  H82      1.0000 0.87430  0.42400  0.09780  Biso   1.000  H
  C88      1.0000 0.87508  0.36215  0.14113  Biso   1.000  C
  H83      1.0000 0.84080  0.36150  0.14760  Biso   1.000  H
  C89      1.0000 0.96659  0.43982  0.06520  Biso   1.000  C
  C90      1.0000 0.84220  0.29305  0.22073  Biso   1.000  C
  C91      1.0000 0.80580  0.25648  0.22120  Biso   1.000  C
  H84      1.0000 0.80990  0.22750  0.20210  Biso   1.000  H
  C92      1.0000 0.95850  0.03140  0.02880  Biso   1.000  C
  H85      1.0000 0.96220  0.06550  0.04100  Biso   1.000  H
  H86      1.0000 0.92670  0.01860  0.04100  Biso   1.000  H
  H87      1.0000 0.15810  0.48620  0.02960  Biso   1.000  H
  H88      1.0000 0.22590  0.44790  0.02970  Biso   1.000  H
  H89      1.0000 0.08870  0.37150  0.02970  Biso   1.000  H
  H90      1.0000 0.15420  0.33240  0.97040  Biso   1.000  H
  C93      1.0000 0.13010  0.42470  0.05160  Biso   1.000  C
  H91      1.0000 0.10460  0.40570  0.06930  Biso   1.000  H
  H92      1.0000 0.13630  0.45550  0.07000  Biso   1.000  H
  C94      1.0000 0.17760  0.39460  0.04690  Biso   1.000  C
  H93      1.0000 0.20270  0.41220  0.06660  Biso   1.000  H
  H94      1.0000 0.17140  0.36320  0.06430  Biso   1.000  H
  C95      1.0000 0.00100  0.95390  0.47370  Biso   1.000  C
  H95      1.0000 0.98140  0.92640  0.48320  Biso   1.000  H
  C96      1.0000 0.03400  0.96800  0.47370  Biso   1.000  C
  H96      1.0000 0.06700  0.96360  0.48310  Biso   1.000  H
  N11      1.0000 0.01420  0.99290  0.31390  Biso   1.000  N
  C97      1.0000 0.98750  0.00020  0.35990  Biso   1.000  C
  H97      1.0000 0.95480  0.01190  0.36290  Biso   1.000  H
  N12      1.0000 0.01960  0.98660  0.40060  Biso   1.000  N
  C98      1.0000 0.06610  0.97090  0.37980  Biso   1.000  C
  H98      1.0000 0.09380  0.96000  0.39800  Biso   1.000  H
  C99      1.0000 0.06270  0.97480  0.32620  Biso   1.000  C
  H99      1.0000 0.08790  0.96680  0.30320  Biso   1.000  H
  C100     1.0000 0.99360  0.05100  0.02900  Biso   1.000  C
  H100     1.0000 0.02060  0.07210  0.04130  Biso   1.000  H
  N13      1.0000 0.78671  0.38605  0.30871  Biso   1.000  N
  O17      1.0000 0.56751  0.47246  0.27353  Biso   1.000  O
  O18      1.0000 0.57000  0.47682  0.35799  Biso   1.000  O
  O19      1.0000 0.93483  0.51214  0.44777  Biso   1.000  O
  O20      1.0000 0.97413  0.43712  0.44815  Biso   1.000  O
  C101     1.0000 0.58874  0.46717  0.31555  Biso   1.000  C
  C102     1.0000 0.64114  0.44677  0.31456  Biso   1.000  C
  C103     1.0000 0.66774  0.43929  0.35839  Biso   1.000  C
  H101     1.0000 0.65340  0.44740  0.38940  Biso   1.000  H
  C104     1.0000 0.71587  0.41968  0.35682  Biso   1.000  C
  H102     1.0000 0.73360  0.41450  0.38670  Biso   1.000  H
  C105     1.0000 0.73742  0.40791  0.31060  Biso   1.000  C
  C106     1.0000 0.71133  0.41557  0.26663  Biso   1.000  C
  H103     1.0000 0.72600  0.40810  0.23560  Biso   1.000  H
  C107     1.0000 0.66271  0.43455  0.26842  Biso   1.000  C
  H104     1.0000 0.64470  0.43900  0.23860  Biso   1.000  H
  C108     1.0000 0.82526  0.40635  0.33799  Biso   1.000  C
  C109     1.0000 0.82757  0.45683  0.34832  Biso   1.000  C
  H105     1.0000 0.80350  0.47800  0.33450  Biso   1.000  H
  C110     1.0000 0.86423  0.47662  0.37830  Biso   1.000  C
  H106     1.0000 0.86490  0.51090  0.38460  Biso   1.000  H
  C111     1.0000 0.90048  0.44569  0.39954  Biso   1.000  C
  C112     1.0000 0.89938  0.39511  0.38891  Biso   1.000  C
  H107     1.0000 0.92400  0.37430  0.40220  Biso   1.000  H
  C113     1.0000 0.86215  0.37508  0.35887  Biso   1.000  C
  H108     1.0000 0.86150  0.34080  0.35240  Biso   1.000  H
  C114     1.0000 0.93982  0.46659  0.43480  Biso   1.000  C
  C115     1.0000 0.79305  0.34220  0.27927  Biso   1.000  C
  C116     1.0000 0.75648  0.30580  0.27880  Biso   1.000  C
  H109     1.0000 0.72750  0.30990  0.29790  Biso   1.000  H
  C117     1.0000 0.53140  0.45850  0.47120  Biso   1.000  C
  H110     1.0000 0.56550  0.46220  0.45900  Biso   1.000  H
  H111     1.0000 0.51860  0.42670  0.45900  Biso   1.000  H
  H112     1.0000 0.98620  0.65810  0.47040  Biso   1.000  H
  H113     1.0000 0.94790  0.72590  0.47030  Biso   1.000  H
  H114     1.0000 0.87150  0.58870  0.47030  Biso   1.000  H
  H115     1.0000 0.83240  0.65420  0.52960  Biso   1.000  H
  C118     1.0000 0.92470  0.63010  0.44840  Biso   1.000  C
  H116     1.0000 0.90570  0.60460  0.43070  Biso   1.000  H
  H117     1.0000 0.95550  0.63630  0.43000  Biso   1.000  H
  C119     1.0000 0.89460  0.67760  0.45310  Biso   1.000  C
  H118     1.0000 0.91220  0.70270  0.43340  Biso   1.000  H
  H119     1.0000 0.86320  0.67140  0.43570  Biso   1.000  H
  C120     1.0000 0.45390  0.50100  0.02630  Biso   1.000  C
  H120     1.0000 0.42640  0.48140  0.01680  Biso   1.000  H
  C121     1.0000 0.46800  0.53400  0.02630  Biso   1.000  C
  H121     1.0000 0.46360  0.56700  0.01690  Biso   1.000  H
  N14      1.0000 0.49290  0.51420  0.18610  Biso   1.000  N
  C122     1.0000 0.50020  0.48750  0.14010  Biso   1.000  C
  H122     1.0000 0.51190  0.45480  0.13710  Biso   1.000  H
  N15      1.0000 0.48660  0.51960  0.09940  Biso   1.000  N
  C123     1.0000 0.47090  0.56610  0.12020  Biso   1.000  C
  H123     1.0000 0.46000  0.59380  0.10200  Biso   1.000  H
  C124     1.0000 0.47480  0.56270  0.17380  Biso   1.000  C
  H124     1.0000 0.46680  0.58790  0.19680  Biso   1.000  H
  C125     1.0000 0.55100  0.49360  0.47100  Biso   1.000  C
  H125     1.0000 0.57210  0.52060  0.45870  Biso   1.000  H
  N16      1.0000 0.21329  0.61395  0.30871  Biso   1.000  N
  O21      1.0000 0.43249  0.52754  0.27353  Biso   1.000  O
  O22      1.0000 0.43000  0.52318  0.35799  Biso   1.000  O
  O23      1.0000 0.06517  0.48786  0.44777  Biso   1.000  O
  O24      1.0000 0.02587  0.56288  0.44815  Biso   1.000  O
  C126     1.0000 0.41126  0.53283  0.31555  Biso   1.000  C
  C127     1.0000 0.35886  0.55323  0.31456  Biso   1.000  C
  C128     1.0000 0.33226  0.56071  0.35839  Biso   1.000  C
  H126     1.0000 0.34660  0.55260  0.38940  Biso   1.000  H
  C129     1.0000 0.28413  0.58032  0.35682  Biso   1.000  C
  H127     1.0000 0.26640  0.58550  0.38670  Biso   1.000  H
  C130     1.0000 0.26258  0.59209  0.31060  Biso   1.000  C
  C131     1.0000 0.28867  0.58443  0.26663  Biso   1.000  C
  H128     1.0000 0.27400  0.59190  0.23560  Biso   1.000  H
  C132     1.0000 0.33729  0.56545  0.26842  Biso   1.000  C
  H129     1.0000 0.35530  0.56100  0.23860  Biso   1.000  H
  C133     1.0000 0.17474  0.59365  0.33799  Biso   1.000  C
  C134     1.0000 0.17243  0.54317  0.34832  Biso   1.000  C
  H130     1.0000 0.19650  0.52200  0.33450  Biso   1.000  H
  C135     1.0000 0.13577  0.52338  0.37830  Biso   1.000  C
  H131     1.0000 0.13510  0.48910  0.38460  Biso   1.000  H
  C136     1.0000 0.09952  0.55431  0.39954  Biso   1.000  C
  C137     1.0000 0.10062  0.60489  0.38891  Biso   1.000  C
  H132     1.0000 0.07600  0.62570  0.40220  Biso   1.000  H
  C138     1.0000 0.13785  0.62492  0.35887  Biso   1.000  C
  H133     1.0000 0.13850  0.65920  0.35240  Biso   1.000  H
  C139     1.0000 0.06018  0.53341  0.43480  Biso   1.000  C
  C140     1.0000 0.20695  0.65780  0.27927  Biso   1.000  C
  C141     1.0000 0.24352  0.69420  0.27880  Biso   1.000  C
  H134     1.0000 0.27250  0.69010  0.29790  Biso   1.000  H
  C142     1.0000 0.46860  0.54150  0.47120  Biso   1.000  C
  H135     1.0000 0.43450  0.53780  0.45900  Biso   1.000  H
  H136     1.0000 0.48140  0.57330  0.45900  Biso   1.000  H
  H137     1.0000 0.01380  0.34190  0.47040  Biso   1.000  H
  H138     1.0000 0.05210  0.27410  0.47030  Biso   1.000  H
  H139     1.0000 0.12850  0.41130  0.47030  Biso   1.000  H
  H140     1.0000 0.16760  0.34580  0.52960  Biso   1.000  H
  C143     1.0000 0.07530  0.36990  0.44840  Biso   1.000  C
  H141     1.0000 0.09430  0.39540  0.43070  Biso   1.000  H
  H142     1.0000 0.04450  0.36370  0.43000  Biso   1.000  H
  C144     1.0000 0.10540  0.32240  0.45310  Biso   1.000  C
  H143     1.0000 0.08780  0.29730  0.43340  Biso   1.000  H
  H144     1.0000 0.13680  0.32860  0.43570  Biso   1.000  H
  C145     1.0000 0.54610  0.49900  0.02630  Biso   1.000  C
  H145     1.0000 0.57360  0.51860  0.01680  Biso   1.000  H
  C146     1.0000 0.53200  0.46600  0.02630  Biso   1.000  C
  H146     1.0000 0.53640  0.43300  0.01690  Biso   1.000  H
  N17      1.0000 0.50710  0.48580  0.18610  Biso   1.000  N
  C147     1.0000 0.49980  0.51250  0.14010  Biso   1.000  C
  H147     1.0000 0.48810  0.54520  0.13710  Biso   1.000  H
  N18      1.0000 0.51340  0.48040  0.09940  Biso   1.000  N
  C148     1.0000 0.52910  0.43390  0.12020  Biso   1.000  C
  H148     1.0000 0.54000  0.40620  0.10200  Biso   1.000  H
  C149     1.0000 0.52520  0.43730  0.17380  Biso   1.000  C
  H149     1.0000 0.53320  0.41210  0.19680  Biso   1.000  H
  C150     1.0000 0.44900  0.50640  0.47100  Biso   1.000  C
  H150     1.0000 0.42790  0.47940  0.45870  Biso   1.000  H
  N19      1.0000 0.38605  0.21329  0.30871  Biso   1.000  N
  O25      1.0000 0.47246  0.43249  0.27353  Biso   1.000  O
  O26      1.0000 0.47682  0.43000  0.35799  Biso   1.000  O
  O27      1.0000 0.51214  0.06517  0.44777  Biso   1.000  O
  O28      1.0000 0.43712  0.02587  0.44815  Biso   1.000  O
  C151     1.0000 0.46717  0.41126  0.31555  Biso   1.000  C
  C152     1.0000 0.44677  0.35886  0.31456  Biso   1.000  C
  C153     1.0000 0.43929  0.33226  0.35839  Biso   1.000  C
  H151     1.0000 0.44740  0.34660  0.38940  Biso   1.000  H
  C154     1.0000 0.41968  0.28413  0.35682  Biso   1.000  C
  H152     1.0000 0.41450  0.26640  0.38670  Biso   1.000  H
  C155     1.0000 0.40791  0.26258  0.31060  Biso   1.000  C
  C156     1.0000 0.41557  0.28867  0.26663  Biso   1.000  C
  H153     1.0000 0.40810  0.27400  0.23560  Biso   1.000  H
  C157     1.0000 0.43455  0.33729  0.26842  Biso   1.000  C
  H154     1.0000 0.43900  0.35530  0.23860  Biso   1.000  H
  C158     1.0000 0.40635  0.17474  0.33799  Biso   1.000  C
  C159     1.0000 0.45683  0.17243  0.34832  Biso   1.000  C
  H155     1.0000 0.47800  0.19650  0.33450  Biso   1.000  H
  C160     1.0000 0.47662  0.13577  0.37830  Biso   1.000  C
  H156     1.0000 0.51090  0.13510  0.38460  Biso   1.000  H
  C161     1.0000 0.44569  0.09952  0.39954  Biso   1.000  C
  C162     1.0000 0.39511  0.10062  0.38891  Biso   1.000  C
  H157     1.0000 0.37430  0.07600  0.40220  Biso   1.000  H
  C163     1.0000 0.37508  0.13785  0.35887  Biso   1.000  C
  H158     1.0000 0.34080  0.13850  0.35240  Biso   1.000  H
  C164     1.0000 0.46659  0.06018  0.43480  Biso   1.000  C
  C165     1.0000 0.34220  0.20695  0.27927  Biso   1.000  C
  C166     1.0000 0.30580  0.24352  0.27880  Biso   1.000  C
  H159     1.0000 0.30990  0.27250  0.29790  Biso   1.000  H
  C167     1.0000 0.45850  0.46860  0.47120  Biso   1.000  C
  H160     1.0000 0.46220  0.43450  0.45900  Biso   1.000  H
  H161     1.0000 0.42670  0.48140  0.45900  Biso   1.000  H
  H162     1.0000 0.65810  0.01380  0.47040  Biso   1.000  H
  H163     1.0000 0.72590  0.05210  0.47030  Biso   1.000  H
  H164     1.0000 0.58870  0.12850  0.47030  Biso   1.000  H
  H165     1.0000 0.65420  0.16760  0.52960  Biso   1.000  H
  C168     1.0000 0.63010  0.07530  0.44840  Biso   1.000  C
  H166     1.0000 0.60460  0.09430  0.43070  Biso   1.000  H
  H167     1.0000 0.63630  0.04450  0.43000  Biso   1.000  H
  C169     1.0000 0.67760  0.10540  0.45310  Biso   1.000  C
  H168     1.0000 0.70270  0.08780  0.43340  Biso   1.000  H
  H169     1.0000 0.67140  0.13680  0.43570  Biso   1.000  H
  C170     1.0000 0.50100  0.54610  0.02630  Biso   1.000  C
  H170     1.0000 0.48140  0.57360  0.01680  Biso   1.000  H
  C171     1.0000 0.53400  0.53200  0.02630  Biso   1.000  C
  H171     1.0000 0.56700  0.53640  0.01690  Biso   1.000  H
  N20      1.0000 0.51420  0.50710  0.18610  Biso   1.000  N
  C172     1.0000 0.48750  0.49980  0.14010  Biso   1.000  C
  H172     1.0000 0.45480  0.48810  0.13710  Biso   1.000  H
  N21      1.0000 0.51960  0.51340  0.09940  Biso   1.000  N
  C173     1.0000 0.56610  0.52910  0.12020  Biso   1.000  C
  H173     1.0000 0.59380  0.54000  0.10200  Biso   1.000  H
  C174     1.0000 0.56270  0.52520  0.17380  Biso   1.000  C
  H174     1.0000 0.58790  0.53320  0.19680  Biso   1.000  H
  C175     1.0000 0.49360  0.44900  0.47100  Biso   1.000  C
  H175     1.0000 0.52060  0.42790  0.45870  Biso   1.000  H
  N22      1.0000 0.61395  0.78671  0.30871  Biso   1.000  N
  O29      1.0000 0.52754  0.56751  0.27353  Biso   1.000  O
  O30      1.0000 0.52318  0.57000  0.35799  Biso   1.000  O
  O31      1.0000 0.48786  0.93483  0.44777  Biso   1.000  O
  O32      1.0000 0.56288  0.97413  0.44815  Biso   1.000  O
  C176     1.0000 0.53283  0.58874  0.31555  Biso   1.000  C
  C177     1.0000 0.55323  0.64114  0.31456  Biso   1.000  C
  C178     1.0000 0.56071  0.66774  0.35839  Biso   1.000  C
  H176     1.0000 0.55260  0.65340  0.38940  Biso   1.000  H
  C179     1.0000 0.58032  0.71587  0.35682  Biso   1.000  C
  H177     1.0000 0.58550  0.73360  0.38670  Biso   1.000  H
  C180     1.0000 0.59209  0.73742  0.31060  Biso   1.000  C
  C181     1.0000 0.58443  0.71133  0.26663  Biso   1.000  C
  H178     1.0000 0.59190  0.72600  0.23560  Biso   1.000  H
  C182     1.0000 0.56545  0.66271  0.26842  Biso   1.000  C
  H179     1.0000 0.56100  0.64470  0.23860  Biso   1.000  H
  C183     1.0000 0.59365  0.82526  0.33799  Biso   1.000  C
  C184     1.0000 0.54317  0.82757  0.34832  Biso   1.000  C
  H180     1.0000 0.52200  0.80350  0.33450  Biso   1.000  H
  C185     1.0000 0.52338  0.86423  0.37830  Biso   1.000  C
  H181     1.0000 0.48910  0.86490  0.38460  Biso   1.000  H
  C186     1.0000 0.55431  0.90048  0.39954  Biso   1.000  C
  C187     1.0000 0.60489  0.89938  0.38891  Biso   1.000  C
  H182     1.0000 0.62570  0.92400  0.40220  Biso   1.000  H
  C188     1.0000 0.62492  0.86215  0.35887  Biso   1.000  C
  H183     1.0000 0.65920  0.86150  0.35240  Biso   1.000  H
  C189     1.0000 0.53341  0.93982  0.43480  Biso   1.000  C
  C190     1.0000 0.65780  0.79305  0.27927  Biso   1.000  C
  C191     1.0000 0.69420  0.75648  0.27880  Biso   1.000  C
  H184     1.0000 0.69010  0.72750  0.29790  Biso   1.000  H
  C192     1.0000 0.54150  0.53140  0.47120  Biso   1.000  C
  H185     1.0000 0.53780  0.56550  0.45900  Biso   1.000  H
  H186     1.0000 0.57330  0.51860  0.45900  Biso   1.000  H
  H187     1.0000 0.34190  0.98620  0.47040  Biso   1.000  H
  H188     1.0000 0.27410  0.94790  0.47030  Biso   1.000  H
  H189     1.0000 0.41130  0.87150  0.47030  Biso   1.000  H
  H190     1.0000 0.34580  0.83240  0.52960  Biso   1.000  H
  C193     1.0000 0.36990  0.92470  0.44840  Biso   1.000  C
  H191     1.0000 0.39540  0.90570  0.43070  Biso   1.000  H
  H192     1.0000 0.36370  0.95550  0.43000  Biso   1.000  H
  C194     1.0000 0.32240  0.89460  0.45310  Biso   1.000  C
  H193     1.0000 0.29730  0.91220  0.43340  Biso   1.000  H
  H194     1.0000 0.32860  0.86320  0.43570  Biso   1.000  H
  C195     1.0000 0.49900  0.45390  0.02630  Biso   1.000  C
  H195     1.0000 0.51860  0.42640  0.01680  Biso   1.000  H
  C196     1.0000 0.46600  0.46800  0.02630  Biso   1.000  C
  H196     1.0000 0.43300  0.46360  0.01690  Biso   1.000  H
  N23      1.0000 0.48580  0.49290  0.18610  Biso   1.000  N
  C197     1.0000 0.51250  0.50020  0.14010  Biso   1.000  C
  H197     1.0000 0.54520  0.51190  0.13710  Biso   1.000  H
  N24      1.0000 0.48040  0.48660  0.09940  Biso   1.000  N
  C198     1.0000 0.43390  0.47090  0.12020  Biso   1.000  C
  H198     1.0000 0.40620  0.46000  0.10200  Biso   1.000  H
  C199     1.0000 0.43730  0.47480  0.17380  Biso   1.000  C
  H199     1.0000 0.41210  0.46680  0.19680  Biso   1.000  H
  C200     1.0000 0.50640  0.55100  0.47100  Biso   1.000  C
  H200     1.0000 0.47940  0.57210  0.45870  Biso   1.000  H
  N25      1.0000 0.28671  0.11395  0.80871  Biso   1.000  N
  O33      1.0000 0.06751  0.02754  0.77353  Biso   1.000  O
  O34      1.0000 0.07000  0.02318  0.85799  Biso   1.000  O
  O35      1.0000 0.43483  0.98786  0.94777  Biso   1.000  O
  O36      1.0000 0.47413  0.06288  0.94815  Biso   1.000  O
  C201     1.0000 0.08874  0.03283  0.81555  Biso   1.000  C
  C202     1.0000 0.14114  0.05323  0.81456  Biso   1.000  C
  C203     1.0000 0.16774  0.06071  0.85839  Biso   1.000  C
  H201     1.0000 0.15340  0.05260  0.88940  Biso   1.000  H
  C204     1.0000 0.21587  0.08032  0.85682  Biso   1.000  C
  H202     1.0000 0.23360  0.08550  0.88670  Biso   1.000  H
  C205     1.0000 0.23742  0.09209  0.81060  Biso   1.000  C
  C206     1.0000 0.21133  0.08443  0.76663  Biso   1.000  C
  H203     1.0000 0.22600  0.09190  0.73560  Biso   1.000  H
  C207     1.0000 0.16271  0.06545  0.76842  Biso   1.000  C
  H204     1.0000 0.14470  0.06100  0.73860  Biso   1.000  H
  C208     1.0000 0.32526  0.09365  0.83799  Biso   1.000  C
  C209     1.0000 0.32757  0.04317  0.84832  Biso   1.000  C
  H205     1.0000 0.30350  0.02200  0.83450  Biso   1.000  H
  C210     1.0000 0.36423  0.02338  0.87830  Biso   1.000  C
  H206     1.0000 0.36490  0.98910  0.88460  Biso   1.000  H
  C211     1.0000 0.40048  0.05431  0.89954  Biso   1.000  C
  C212     1.0000 0.39938  0.10489  0.88891  Biso   1.000  C
  H207     1.0000 0.42400  0.12570  0.90220  Biso   1.000  H
  C213     1.0000 0.36215  0.12492  0.85887  Biso   1.000  C
  H208     1.0000 0.36150  0.15920  0.85240  Biso   1.000  H
  C214     1.0000 0.43982  0.03341  0.93480  Biso   1.000  C
  C215     1.0000 0.29305  0.15780  0.77927  Biso   1.000  C
  C216     1.0000 0.25648  0.19420  0.77880  Biso   1.000  C
  H209     1.0000 0.22750  0.19010  0.79790  Biso   1.000  H
  C217     1.0000 0.03140  0.04150  0.97120  Biso   1.000  C
  H210     1.0000 0.06550  0.03780  0.95900  Biso   1.000  H
  H211     1.0000 0.01860  0.07330  0.95900  Biso   1.000  H
  H212     1.0000 0.48620  0.84190  0.97040  Biso   1.000  H
  H213     1.0000 0.44790  0.77410  0.97030  Biso   1.000  H
  H214     1.0000 0.37150  0.91130  0.97030  Biso   1.000  H
  H215     1.0000 0.33240  0.84580  0.02960  Biso   1.000  H
  C218     1.0000 0.42470  0.86990  0.94840  Biso   1.000  C
  H216     1.0000 0.40570  0.89540  0.93070  Biso   1.000  H
  H217     1.0000 0.45550  0.86370  0.93000  Biso   1.000  H
  C219     1.0000 0.39460  0.82240  0.95310  Biso   1.000  C
  H218     1.0000 0.41220  0.79730  0.93340  Biso   1.000  H
  H219     1.0000 0.36320  0.82860  0.93570  Biso   1.000  H
  C220     1.0000 0.95390  0.99900  0.52630  Biso   1.000  C
  H220     1.0000 0.92640  0.01860  0.51680  Biso   1.000  H
  C221     1.0000 0.96800  0.96600  0.52630  Biso   1.000  C
  H221     1.0000 0.96360  0.93300  0.51690  Biso   1.000  H
  N26      1.0000 0.99290  0.98580  0.68610  Biso   1.000  N
  C222     1.0000 0.00020  0.01250  0.64010  Biso   1.000  C
  H222     1.0000 0.01190  0.04520  0.63710  Biso   1.000  H
  N27      1.0000 0.98660  0.98040  0.59940  Biso   1.000  N
  C223     1.0000 0.97090  0.93390  0.62020  Biso   1.000  C
  H223     1.0000 0.96000  0.90620  0.60200  Biso   1.000  H
  C224     1.0000 0.97480  0.93730  0.67380  Biso   1.000  C
  H224     1.0000 0.96680  0.91210  0.69680  Biso   1.000  H
  C225     1.0000 0.05100  0.00640  0.97100  Biso   1.000  C
  H225     1.0000 0.07210  0.97940  0.95870  Biso   1.000  H
  N28      1.0000 0.71329  0.88605  0.80871  Biso   1.000  N
  O37      1.0000 0.93249  0.97246  0.77353  Biso   1.000  O
  O38      1.0000 0.93000  0.97682  0.85799  Biso   1.000  O
  O39      1.0000 0.56517  0.01214  0.94777  Biso   1.000  O
  O40      1.0000 0.52587  0.93712  0.94815  Biso   1.000  O
  C226     1.0000 0.91126  0.96717  0.81555  Biso   1.000  C
  C227     1.0000 0.85886  0.94677  0.81456  Biso   1.000  C
  C228     1.0000 0.83226  0.93929  0.85839  Biso   1.000  C
  H226     1.0000 0.84660  0.94740  0.88940  Biso   1.000  H
  C229     1.0000 0.78413  0.91968  0.85682  Biso   1.000  C
  H227     1.0000 0.76640  0.91450  0.88670  Biso   1.000  H
  C230     1.0000 0.76258  0.90791  0.81060  Biso   1.000  C
  C231     1.0000 0.78867  0.91557  0.76663  Biso   1.000  C
  H228     1.0000 0.77400  0.90810  0.73560  Biso   1.000  H
  C232     1.0000 0.83729  0.93455  0.76842  Biso   1.000  C
  H229     1.0000 0.85530  0.93900  0.73860  Biso   1.000  H
  C233     1.0000 0.67474  0.90635  0.83799  Biso   1.000  C
  C234     1.0000 0.67243  0.95683  0.84832  Biso   1.000  C
  H230     1.0000 0.69650  0.97800  0.83450  Biso   1.000  H
  C235     1.0000 0.63577  0.97662  0.87830  Biso   1.000  C
  H231     1.0000 0.63510  0.01090  0.88460  Biso   1.000  H
  C236     1.0000 0.59952  0.94569  0.89954  Biso   1.000  C
  C237     1.0000 0.60062  0.89511  0.88891  Biso   1.000  C
  H232     1.0000 0.57600  0.87430  0.90220  Biso   1.000  H
  C238     1.0000 0.63785  0.87508  0.85887  Biso   1.000  C
  H233     1.0000 0.63850  0.84080  0.85240  Biso   1.000  H
  C239     1.0000 0.56018  0.96659  0.93480  Biso   1.000  C
  C240     1.0000 0.70695  0.84220  0.77927  Biso   1.000  C
  C241     1.0000 0.74352  0.80580  0.77880  Biso   1.000  C
  H234     1.0000 0.77250  0.80990  0.79790  Biso   1.000  H
  C242     1.0000 0.96860  0.95850  0.97120  Biso   1.000  C
  H235     1.0000 0.93450  0.96220  0.95900  Biso   1.000  H
  H236     1.0000 0.98140  0.92670  0.95900  Biso   1.000  H
  H237     1.0000 0.51380  0.15810  0.97040  Biso   1.000  H
  H238     1.0000 0.55210  0.22590  0.97030  Biso   1.000  H
  H239     1.0000 0.62850  0.08870  0.97030  Biso   1.000  H
  H240     1.0000 0.66760  0.15420  0.02960  Biso   1.000  H
  C243     1.0000 0.57530  0.13010  0.94840  Biso   1.000  C
  H241     1.0000 0.59430  0.10460  0.93070  Biso   1.000  H
  H242     1.0000 0.54450  0.13630  0.93000  Biso   1.000  H
  C244     1.0000 0.60540  0.17760  0.95310  Biso   1.000  C
  H243     1.0000 0.58780  0.20270  0.93340  Biso   1.000  H
  H244     1.0000 0.63680  0.17140  0.93570  Biso   1.000  H
  C245     1.0000 0.04610  0.00100  0.52630  Biso   1.000  C
  H245     1.0000 0.07360  0.98140  0.51680  Biso   1.000  H
  C246     1.0000 0.03200  0.03400  0.52630  Biso   1.000  C
  H246     1.0000 0.03640  0.06700  0.51690  Biso   1.000  H
  N29      1.0000 0.00710  0.01420  0.68610  Biso   1.000  N
  C247     1.0000 0.99980  0.98750  0.64010  Biso   1.000  C
  H247     1.0000 0.98810  0.95480  0.63710  Biso   1.000  H
  N30      1.0000 0.01340  0.01960  0.59940  Biso   1.000  N
  C248     1.0000 0.02910  0.06610  0.62020  Biso   1.000  C
  H248     1.0000 0.04000  0.09380  0.60200  Biso   1.000  H
  C249     1.0000 0.02520  0.06270  0.67380  Biso   1.000  C
  H249     1.0000 0.03320  0.08790  0.69680  Biso   1.000  H
  C250     1.0000 0.94900  0.99360  0.97100  Biso   1.000  C
  H250     1.0000 0.92790  0.02060  0.95870  Biso   1.000  H
  N31      1.0000 0.88605  0.28671  0.80871  Biso   1.000  N
  O41      1.0000 0.97246  0.06751  0.77353  Biso   1.000  O
  O42      1.0000 0.97682  0.07000  0.85799  Biso   1.000  O
  O43      1.0000 0.01214  0.43483  0.94777  Biso   1.000  O
  O44      1.0000 0.93712  0.47413  0.94815  Biso   1.000  O
  C251     1.0000 0.96717  0.08874  0.81555  Biso   1.000  C
  C252     1.0000 0.94677  0.14114  0.81456  Biso   1.000  C
  C253     1.0000 0.93929  0.16774  0.85839  Biso   1.000  C
  H251     1.0000 0.94740  0.15340  0.88940  Biso   1.000  H
  C254     1.0000 0.91968  0.21587  0.85682  Biso   1.000  C
  H252     1.0000 0.91450  0.23360  0.88670  Biso   1.000  H
  C255     1.0000 0.90791  0.23742  0.81060  Biso   1.000  C
  C256     1.0000 0.91557  0.21133  0.76663  Biso   1.000  C
  H253     1.0000 0.90810  0.22600  0.73560  Biso   1.000  H
  C257     1.0000 0.93455  0.16271  0.76842  Biso   1.000  C
  H254     1.0000 0.93900  0.14470  0.73860  Biso   1.000  H
  C258     1.0000 0.90635  0.32526  0.83799  Biso   1.000  C
  C259     1.0000 0.95683  0.32757  0.84832  Biso   1.000  C
  H255     1.0000 0.97800  0.30350  0.83450  Biso   1.000  H
  C260     1.0000 0.97662  0.36423  0.87830  Biso   1.000  C
  H256     1.0000 0.01090  0.36490  0.88460  Biso   1.000  H
  C261     1.0000 0.94569  0.40048  0.89954  Biso   1.000  C
  C262     1.0000 0.89511  0.39938  0.88891  Biso   1.000  C
  H257     1.0000 0.87430  0.42400  0.90220  Biso   1.000  H
  C263     1.0000 0.87508  0.36215  0.85887  Biso   1.000  C
  H258     1.0000 0.84080  0.36150  0.85240  Biso   1.000  H
  C264     1.0000 0.96659  0.43982  0.93480  Biso   1.000  C
  C265     1.0000 0.84220  0.29305  0.77927  Biso   1.000  C
  C266     1.0000 0.80580  0.25648  0.77880  Biso   1.000  C
  H259     1.0000 0.80990  0.22750  0.79790  Biso   1.000  H
  C267     1.0000 0.95850  0.03140  0.97120  Biso   1.000  C
  H260     1.0000 0.96220  0.06550  0.95900  Biso   1.000  H
  H261     1.0000 0.92670  0.01860  0.95900  Biso   1.000  H
  H262     1.0000 0.15810  0.48620  0.97040  Biso   1.000  H
  H263     1.0000 0.22590  0.44790  0.97030  Biso   1.000  H
  H264     1.0000 0.08870  0.37150  0.97030  Biso   1.000  H
  H265     1.0000 0.15420  0.33240  0.02960  Biso   1.000  H
  C268     1.0000 0.13010  0.42470  0.94840  Biso   1.000  C
  H266     1.0000 0.10460  0.40570  0.93070  Biso   1.000  H
  H267     1.0000 0.13630  0.45550  0.93000  Biso   1.000  H
  C269     1.0000 0.17760  0.39460  0.95310  Biso   1.000  C
  H268     1.0000 0.20270  0.41220  0.93340  Biso   1.000  H
  H269     1.0000 0.17140  0.36320  0.93570  Biso   1.000  H
  C270     1.0000 0.00100  0.95390  0.52630  Biso   1.000  C
  H270     1.0000 0.98140  0.92640  0.51680  Biso   1.000  H
  C271     1.0000 0.03400  0.96800  0.52630  Biso   1.000  C
  H271     1.0000 0.06700  0.96360  0.51690  Biso   1.000  H
  N32      1.0000 0.01420  0.99290  0.68610  Biso   1.000  N
  C272     1.0000 0.98750  0.00020  0.64010  Biso   1.000  C
  H272     1.0000 0.95480  0.01190  0.63710  Biso   1.000  H
  N33      1.0000 0.01960  0.98660  0.59940  Biso   1.000  N
  C273     1.0000 0.06610  0.97090  0.62020  Biso   1.000  C
  H273     1.0000 0.09380  0.96000  0.60200  Biso   1.000  H
  C274     1.0000 0.06270  0.97480  0.67380  Biso   1.000  C
  H274     1.0000 0.08790  0.96680  0.69680  Biso   1.000  H
  C275     1.0000 0.99360  0.05100  0.97100  Biso   1.000  C
  H275     1.0000 0.02060  0.07210  0.95870  Biso   1.000  H
  N34      1.0000 0.11395  0.71329  0.80871  Biso   1.000  N
  O45      1.0000 0.02754  0.93249  0.77353  Biso   1.000  O
  O46      1.0000 0.02318  0.93000  0.85799  Biso   1.000  O
  O47      1.0000 0.98786  0.56517  0.94777  Biso   1.000  O
  O48      1.0000 0.06288  0.52587  0.94815  Biso   1.000  O
  C276     1.0000 0.03283  0.91126  0.81555  Biso   1.000  C
  C277     1.0000 0.05323  0.85886  0.81456  Biso   1.000  C
  C278     1.0000 0.06071  0.83226  0.85839  Biso   1.000  C
  H276     1.0000 0.05260  0.84660  0.88940  Biso   1.000  H
  C279     1.0000 0.08032  0.78413  0.85682  Biso   1.000  C
  H277     1.0000 0.08550  0.76640  0.88670  Biso   1.000  H
  C280     1.0000 0.09209  0.76258  0.81060  Biso   1.000  C
  C281     1.0000 0.08443  0.78867  0.76663  Biso   1.000  C
  H278     1.0000 0.09190  0.77400  0.73560  Biso   1.000  H
  C282     1.0000 0.06545  0.83729  0.76842  Biso   1.000  C
  H279     1.0000 0.06100  0.85530  0.73860  Biso   1.000  H
  C283     1.0000 0.09365  0.67474  0.83799  Biso   1.000  C
  C284     1.0000 0.04317  0.67243  0.84832  Biso   1.000  C
  H280     1.0000 0.02200  0.69650  0.83450  Biso   1.000  H
  C285     1.0000 0.02338  0.63577  0.87830  Biso   1.000  C
  H281     1.0000 0.98910  0.63510  0.88460  Biso   1.000  H
  C286     1.0000 0.05431  0.59952  0.89954  Biso   1.000  C
  C287     1.0000 0.10489  0.60062  0.88891  Biso   1.000  C
  H282     1.0000 0.12570  0.57600  0.90220  Biso   1.000  H
  C288     1.0000 0.12492  0.63785  0.85887  Biso   1.000  C
  H283     1.0000 0.15920  0.63850  0.85240  Biso   1.000  H
  C289     1.0000 0.03341  0.56018  0.93480  Biso   1.000  C
  C290     1.0000 0.15780  0.70695  0.77927  Biso   1.000  C
  C291     1.0000 0.19420  0.74352  0.77880  Biso   1.000  C
  H284     1.0000 0.19010  0.77250  0.79790  Biso   1.000  H
  C292     1.0000 0.04150  0.96860  0.97120  Biso   1.000  C
  H285     1.0000 0.03780  0.93450  0.95900  Biso   1.000  H
  H286     1.0000 0.07330  0.98140  0.95900  Biso   1.000  H
  H287     1.0000 0.84190  0.51380  0.97040  Biso   1.000  H
  H288     1.0000 0.77410  0.55210  0.97030  Biso   1.000  H
  H289     1.0000 0.91130  0.62850  0.97030  Biso   1.000  H
  H290     1.0000 0.84580  0.66760  0.02960  Biso   1.000  H
  C293     1.0000 0.86990  0.57530  0.94840  Biso   1.000  C
  H291     1.0000 0.89540  0.59430  0.93070  Biso   1.000  H
  H292     1.0000 0.86370  0.54450  0.93000  Biso   1.000  H
  C294     1.0000 0.82240  0.60540  0.95310  Biso   1.000  C
  H293     1.0000 0.79730  0.58780  0.93340  Biso   1.000  H
  H294     1.0000 0.82860  0.63680  0.93570  Biso   1.000  H
  C295     1.0000 0.99900  0.04610  0.52630  Biso   1.000  C
  H295     1.0000 0.01860  0.07360  0.51680  Biso   1.000  H
  C296     1.0000 0.96600  0.03200  0.52630  Biso   1.000  C
  H296     1.0000 0.93300  0.03640  0.51690  Biso   1.000  H
  N35      1.0000 0.98580  0.00710  0.68610  Biso   1.000  N
  C297     1.0000 0.01250  0.99980  0.64010  Biso   1.000  C
  H297     1.0000 0.04520  0.98810  0.63710  Biso   1.000  H
  N36      1.0000 0.98040  0.01340  0.59940  Biso   1.000  N
  C298     1.0000 0.93390  0.02910  0.62020  Biso   1.000  C
  H298     1.0000 0.90620  0.04000  0.60200  Biso   1.000  H
  C299     1.0000 0.93730  0.02520  0.67380  Biso   1.000  C
  H299     1.0000 0.91210  0.03320  0.69680  Biso   1.000  H
  C300     1.0000 0.00640  0.94900  0.97100  Biso   1.000  C
  H300     1.0000 0.97940  0.92790  0.95870  Biso   1.000  H
  N37      1.0000 0.21329  0.61395  0.69129  Biso   1.000  N
  O49      1.0000 0.43249  0.52754  0.72647  Biso   1.000  O
  O50      1.0000 0.43000  0.52318  0.64201  Biso   1.000  O
  O51      1.0000 0.06517  0.48786  0.55223  Biso   1.000  O
  O52      1.0000 0.02587  0.56288  0.55185  Biso   1.000  O
  C301     1.0000 0.41126  0.53283  0.68445  Biso   1.000  C
  C302     1.0000 0.35886  0.55323  0.68544  Biso   1.000  C
  C303     1.0000 0.33226  0.56071  0.64161  Biso   1.000  C
  H301     1.0000 0.34660  0.55260  0.61060  Biso   1.000  H
  C304     1.0000 0.28413  0.58032  0.64318  Biso   1.000  C
  H302     1.0000 0.26640  0.58550  0.61330  Biso   1.000  H
  C305     1.0000 0.26258  0.59209  0.68940  Biso   1.000  C
  C306     1.0000 0.28867  0.58443  0.73337  Biso   1.000  C
  H303     1.0000 0.27400  0.59190  0.76440  Biso   1.000  H
  C307     1.0000 0.33729  0.56545  0.73158  Biso   1.000  C
  H304     1.0000 0.35530  0.56100  0.76140  Biso   1.000  H
  C308     1.0000 0.17474  0.59365  0.66201  Biso   1.000  C
  C309     1.0000 0.17243  0.54317  0.65168  Biso   1.000  C
  H305     1.0000 0.19650  0.52200  0.66550  Biso   1.000  H
  C310     1.0000 0.13577  0.52338  0.62170  Biso   1.000  C
  H306     1.0000 0.13510  0.48910  0.61540  Biso   1.000  H
  C311     1.0000 0.09952  0.55431  0.60046  Biso   1.000  C
  C312     1.0000 0.10062  0.60489  0.61109  Biso   1.000  C
  H307     1.0000 0.07600  0.62570  0.59780  Biso   1.000  H
  C313     1.0000 0.13785  0.62492  0.64113  Biso   1.000  C
  H308     1.0000 0.13850  0.65920  0.64760  Biso   1.000  H
  C314     1.0000 0.06018  0.53341  0.56520  Biso   1.000  C
  C315     1.0000 0.20695  0.65780  0.72073  Biso   1.000  C
  C316     1.0000 0.24352  0.69420  0.72120  Biso   1.000  C
  H309     1.0000 0.27250  0.69010  0.70210  Biso   1.000  H
  C317     1.0000 0.46860  0.54150  0.52880  Biso   1.000  C
  H310     1.0000 0.43450  0.53780  0.54100  Biso   1.000  H
  H311     1.0000 0.48140  0.57330  0.54100  Biso   1.000  H
  H312     1.0000 0.01380  0.34190  0.52960  Biso   1.000  H
  H313     1.0000 0.05210  0.27410  0.52970  Biso   1.000  H
  H314     1.0000 0.12850  0.41130  0.52970  Biso   1.000  H
  H315     1.0000 0.16760  0.34580  0.47040  Biso   1.000  H
  C318     1.0000 0.07530  0.36990  0.55160  Biso   1.000  C
  H316     1.0000 0.09430  0.39540  0.56930  Biso   1.000  H
  H317     1.0000 0.04450  0.36370  0.57000  Biso   1.000  H
  C319     1.0000 0.10540  0.32240  0.54690  Biso   1.000  C
  H318     1.0000 0.08780  0.29730  0.56660  Biso   1.000  H
  H319     1.0000 0.13680  0.32860  0.56430  Biso   1.000  H
  C320     1.0000 0.54610  0.49900  0.97370  Biso   1.000  C
  H320     1.0000 0.57360  0.51860  0.98320  Biso   1.000  H
  C321     1.0000 0.53200  0.46600  0.97370  Biso   1.000  C
  H321     1.0000 0.53640  0.43300  0.98310  Biso   1.000  H
  N38      1.0000 0.50710  0.48580  0.81390  Biso   1.000  N
  C322     1.0000 0.49980  0.51250  0.85990  Biso   1.000  C
  H322     1.0000 0.48810  0.54520  0.86290  Biso   1.000  H
  N39      1.0000 0.51340  0.48040  0.90060  Biso   1.000  N
  C323     1.0000 0.52910  0.43390  0.87980  Biso   1.000  C
  H323     1.0000 0.54000  0.40620  0.89800  Biso   1.000  H
  C324     1.0000 0.52520  0.43730  0.82620  Biso   1.000  C
  H324     1.0000 0.53320  0.41210  0.80320  Biso   1.000  H
  C325     1.0000 0.44900  0.50640  0.52900  Biso   1.000  C
  H325     1.0000 0.42790  0.47940  0.54130  Biso   1.000  H
  N40      1.0000 0.78671  0.38605  0.69129  Biso   1.000  N
  O53      1.0000 0.56751  0.47246  0.72647  Biso   1.000  O
  O54      1.0000 0.57000  0.47682  0.64201  Biso   1.000  O
  O55      1.0000 0.93483  0.51214  0.55223  Biso   1.000  O
  O56      1.0000 0.97413  0.43712  0.55185  Biso   1.000  O
  C326     1.0000 0.58874  0.46717  0.68445  Biso   1.000  C
  C327     1.0000 0.64114  0.44677  0.68544  Biso   1.000  C
  C328     1.0000 0.66774  0.43929  0.64161  Biso   1.000  C
  H326     1.0000 0.65340  0.44740  0.61060  Biso   1.000  H
  C329     1.0000 0.71587  0.41968  0.64318  Biso   1.000  C
  H327     1.0000 0.73360  0.41450  0.61330  Biso   1.000  H
  C330     1.0000 0.73742  0.40791  0.68940  Biso   1.000  C
  C331     1.0000 0.71133  0.41557  0.73337  Biso   1.000  C
  H328     1.0000 0.72600  0.40810  0.76440  Biso   1.000  H
  C332     1.0000 0.66271  0.43455  0.73158  Biso   1.000  C
  H329     1.0000 0.64470  0.43900  0.76140  Biso   1.000  H
  C333     1.0000 0.82526  0.40635  0.66201  Biso   1.000  C
  C334     1.0000 0.82757  0.45683  0.65168  Biso   1.000  C
  H330     1.0000 0.80350  0.47800  0.66550  Biso   1.000  H
  C335     1.0000 0.86423  0.47662  0.62170  Biso   1.000  C
  H331     1.0000 0.86490  0.51090  0.61540  Biso   1.000  H
  C336     1.0000 0.90048  0.44569  0.60046  Biso   1.000  C
  C337     1.0000 0.89938  0.39511  0.61109  Biso   1.000  C
  H332     1.0000 0.92400  0.37430  0.59780  Biso   1.000  H
  C338     1.0000 0.86215  0.37508  0.64113  Biso   1.000  C
  H333     1.0000 0.86150  0.34080  0.64760  Biso   1.000  H
  C339     1.0000 0.93982  0.46659  0.56520  Biso   1.000  C
  C340     1.0000 0.79305  0.34220  0.72073  Biso   1.000  C
  C341     1.0000 0.75648  0.30580  0.72120  Biso   1.000  C
  H334     1.0000 0.72750  0.30990  0.70210  Biso   1.000  H
  C342     1.0000 0.53140  0.45850  0.52880  Biso   1.000  C
  H335     1.0000 0.56550  0.46220  0.54100  Biso   1.000  H
  H336     1.0000 0.51860  0.42670  0.54100  Biso   1.000  H
  H337     1.0000 0.98620  0.65810  0.52960  Biso   1.000  H
  H338     1.0000 0.94790  0.72590  0.52970  Biso   1.000  H
  H339     1.0000 0.87150  0.58870  0.52970  Biso   1.000  H
  H340     1.0000 0.83240  0.65420  0.47040  Biso   1.000  H
  C343     1.0000 0.92470  0.63010  0.55160  Biso   1.000  C
  H341     1.0000 0.90570  0.60460  0.56930  Biso   1.000  H
  H342     1.0000 0.95550  0.63630  0.57000  Biso   1.000  H
  C344     1.0000 0.89460  0.67760  0.54690  Biso   1.000  C
  H343     1.0000 0.91220  0.70270  0.56660  Biso   1.000  H
  H344     1.0000 0.86320  0.67140  0.56430  Biso   1.000  H
  C345     1.0000 0.45390  0.50100  0.97370  Biso   1.000  C
  H345     1.0000 0.42640  0.48140  0.98320  Biso   1.000  H
  C346     1.0000 0.46800  0.53400  0.97370  Biso   1.000  C
  H346     1.0000 0.46360  0.56700  0.98310  Biso   1.000  H
  N41      1.0000 0.49290  0.51420  0.81390  Biso   1.000  N
  C347     1.0000 0.50020  0.48750  0.85990  Biso   1.000  C
  H347     1.0000 0.51190  0.45480  0.86290  Biso   1.000  H
  N42      1.0000 0.48660  0.51960  0.90060  Biso   1.000  N
  C348     1.0000 0.47090  0.56610  0.87980  Biso   1.000  C
  H348     1.0000 0.46000  0.59380  0.89800  Biso   1.000  H
  C349     1.0000 0.47480  0.56270  0.82620  Biso   1.000  C
  H349     1.0000 0.46680  0.58790  0.80320  Biso   1.000  H
  C350     1.0000 0.55100  0.49360  0.52900  Biso   1.000  C
  H350     1.0000 0.57210  0.52060  0.54130  Biso   1.000  H
  N43      1.0000 0.61395  0.78671  0.69129  Biso   1.000  N
  O57      1.0000 0.52754  0.56751  0.72647  Biso   1.000  O
  O58      1.0000 0.52318  0.57000  0.64201  Biso   1.000  O
  O59      1.0000 0.48786  0.93483  0.55223  Biso   1.000  O
  O60      1.0000 0.56288  0.97413  0.55185  Biso   1.000  O
  C351     1.0000 0.53283  0.58874  0.68445  Biso   1.000  C
  C352     1.0000 0.55323  0.64114  0.68544  Biso   1.000  C
  C353     1.0000 0.56071  0.66774  0.64161  Biso   1.000  C
  H351     1.0000 0.55260  0.65340  0.61060  Biso   1.000  H
  C354     1.0000 0.58032  0.71587  0.64318  Biso   1.000  C
  H352     1.0000 0.58550  0.73360  0.61330  Biso   1.000  H
  C355     1.0000 0.59209  0.73742  0.68940  Biso   1.000  C
  C356     1.0000 0.58443  0.71133  0.73337  Biso   1.000  C
  H353     1.0000 0.59190  0.72600  0.76440  Biso   1.000  H
  C357     1.0000 0.56545  0.66271  0.73158  Biso   1.000  C
  H354     1.0000 0.56100  0.64470  0.76140  Biso   1.000  H
  C358     1.0000 0.59365  0.82526  0.66201  Biso   1.000  C
  C359     1.0000 0.54317  0.82757  0.65168  Biso   1.000  C
  H355     1.0000 0.52200  0.80350  0.66550  Biso   1.000  H
  C360     1.0000 0.52338  0.86423  0.62170  Biso   1.000  C
  H356     1.0000 0.48910  0.86490  0.61540  Biso   1.000  H
  C361     1.0000 0.55431  0.90048  0.60046  Biso   1.000  C
  C362     1.0000 0.60489  0.89938  0.61109  Biso   1.000  C
  H357     1.0000 0.62570  0.92400  0.59780  Biso   1.000  H
  C363     1.0000 0.62492  0.86215  0.64113  Biso   1.000  C
  H358     1.0000 0.65920  0.86150  0.64760  Biso   1.000  H
  C364     1.0000 0.53341  0.93982  0.56520  Biso   1.000  C
  C365     1.0000 0.65780  0.79305  0.72073  Biso   1.000  C
  C366     1.0000 0.69420  0.75648  0.72120  Biso   1.000  C
  H359     1.0000 0.69010  0.72750  0.70210  Biso   1.000  H
  C367     1.0000 0.54150  0.53140  0.52880  Biso   1.000  C
  H360     1.0000 0.53780  0.56550  0.54100  Biso   1.000  H
  H361     1.0000 0.57330  0.51860  0.54100  Biso   1.000  H
  H362     1.0000 0.34190  0.98620  0.52960  Biso   1.000  H
  H363     1.0000 0.27410  0.94790  0.52970  Biso   1.000  H
  H364     1.0000 0.41130  0.87150  0.52970  Biso   1.000  H
  H365     1.0000 0.34580  0.83240  0.47040  Biso   1.000  H
  C368     1.0000 0.36990  0.92470  0.55160  Biso   1.000  C
  H366     1.0000 0.39540  0.90570  0.56930  Biso   1.000  H
  H367     1.0000 0.36370  0.95550  0.57000  Biso   1.000  H
  C369     1.0000 0.32240  0.89460  0.54690  Biso   1.000  C
  H368     1.0000 0.29730  0.91220  0.56660  Biso   1.000  H
  H369     1.0000 0.32860  0.86320  0.56430  Biso   1.000  H
  C370     1.0000 0.49900  0.45390  0.97370  Biso   1.000  C
  H370     1.0000 0.51860  0.42640  0.98320  Biso   1.000  H
  C371     1.0000 0.46600  0.46800  0.97370  Biso   1.000  C
  H371     1.0000 0.43300  0.46360  0.98310  Biso   1.000  H
  N44      1.0000 0.48580  0.49290  0.81390  Biso   1.000  N
  C372     1.0000 0.51250  0.50020  0.85990  Biso   1.000  C
  H372     1.0000 0.54520  0.51190  0.86290  Biso   1.000  H
  N45      1.0000 0.48040  0.48660  0.90060  Biso   1.000  N
  C373     1.0000 0.43390  0.47090  0.87980  Biso   1.000  C
  H373     1.0000 0.40620  0.46000  0.89800  Biso   1.000  H
  C374     1.0000 0.43730  0.47480  0.82620  Biso   1.000  C
  H374     1.0000 0.41210  0.46680  0.80320  Biso   1.000  H
  C375     1.0000 0.50640  0.55100  0.52900  Biso   1.000  C
  H375     1.0000 0.47940  0.57210  0.54130  Biso   1.000  H
  N46      1.0000 0.38605  0.21329  0.69129  Biso   1.000  N
  O61      1.0000 0.47246  0.43249  0.72647  Biso   1.000  O
  O62      1.0000 0.47682  0.43000  0.64201  Biso   1.000  O
  O63      1.0000 0.51214  0.06517  0.55223  Biso   1.000  O
  O64      1.0000 0.43712  0.02587  0.55185  Biso   1.000  O
  C376     1.0000 0.46717  0.41126  0.68445  Biso   1.000  C
  C377     1.0000 0.44677  0.35886  0.68544  Biso   1.000  C
  C378     1.0000 0.43929  0.33226  0.64161  Biso   1.000  C
  H376     1.0000 0.44740  0.34660  0.61060  Biso   1.000  H
  C379     1.0000 0.41968  0.28413  0.64318  Biso   1.000  C
  H377     1.0000 0.41450  0.26640  0.61330  Biso   1.000  H
  C380     1.0000 0.40791  0.26258  0.68940  Biso   1.000  C
  C381     1.0000 0.41557  0.28867  0.73337  Biso   1.000  C
  H378     1.0000 0.40810  0.27400  0.76440  Biso   1.000  H
  C382     1.0000 0.43455  0.33729  0.73158  Biso   1.000  C
  H379     1.0000 0.43900  0.35530  0.76140  Biso   1.000  H
  C383     1.0000 0.40635  0.17474  0.66201  Biso   1.000  C
  C384     1.0000 0.45683  0.17243  0.65168  Biso   1.000  C
  H380     1.0000 0.47800  0.19650  0.66550  Biso   1.000  H
  C385     1.0000 0.47662  0.13577  0.62170  Biso   1.000  C
  H381     1.0000 0.51090  0.13510  0.61540  Biso   1.000  H
  C386     1.0000 0.44569  0.09952  0.60046  Biso   1.000  C
  C387     1.0000 0.39511  0.10062  0.61109  Biso   1.000  C
  H382     1.0000 0.37430  0.07600  0.59780  Biso   1.000  H
  C388     1.0000 0.37508  0.13785  0.64113  Biso   1.000  C
  H383     1.0000 0.34080  0.13850  0.64760  Biso   1.000  H
  C389     1.0000 0.46659  0.06018  0.56520  Biso   1.000  C
  C390     1.0000 0.34220  0.20695  0.72073  Biso   1.000  C
  C391     1.0000 0.30580  0.24352  0.72120  Biso   1.000  C
  H384     1.0000 0.30990  0.27250  0.70210  Biso   1.000  H
  C392     1.0000 0.45850  0.46860  0.52880  Biso   1.000  C
  H385     1.0000 0.46220  0.43450  0.54100  Biso   1.000  H
  H386     1.0000 0.42670  0.48140  0.54100  Biso   1.000  H
  H387     1.0000 0.65810  0.01380  0.52960  Biso   1.000  H
  H388     1.0000 0.72590  0.05210  0.52970  Biso   1.000  H
  H389     1.0000 0.58870  0.12850  0.52970  Biso   1.000  H
  H390     1.0000 0.65420  0.16760  0.47040  Biso   1.000  H
  C393     1.0000 0.63010  0.07530  0.55160  Biso   1.000  C
  H391     1.0000 0.60460  0.09430  0.56930  Biso   1.000  H
  H392     1.0000 0.63630  0.04450  0.57000  Biso   1.000  H
  C394     1.0000 0.67760  0.10540  0.54690  Biso   1.000  C
  H393     1.0000 0.70270  0.08780  0.56660  Biso   1.000  H
  H394     1.0000 0.67140  0.13680  0.56430  Biso   1.000  H
  C395     1.0000 0.50100  0.54610  0.97370  Biso   1.000  C
  H395     1.0000 0.48140  0.57360  0.98320  Biso   1.000  H
  C396     1.0000 0.53400  0.53200  0.97370  Biso   1.000  C
  H396     1.0000 0.56700  0.53640  0.98310  Biso   1.000  H
  N47      1.0000 0.51420  0.50710  0.81390  Biso   1.000  N
  C397     1.0000 0.48750  0.49980  0.85990  Biso   1.000  C
  H397     1.0000 0.45480  0.48810  0.86290  Biso   1.000  H
  N48      1.0000 0.51960  0.51340  0.90060  Biso   1.000  N
  C398     1.0000 0.56610  0.52910  0.87980  Biso   1.000  C
  H398     1.0000 0.59380  0.54000  0.89800  Biso   1.000  H
  C399     1.0000 0.56270  0.52520  0.82620  Biso   1.000  C
  H399     1.0000 0.58790  0.53320  0.80320  Biso   1.000  H
  C400     1.0000 0.49360  0.44900  0.52900  Biso   1.000  C
  H400     1.0000 0.52060  0.42790  0.54130  Biso   1.000  H
  Cu1      1.0000 0.00000  0.00000  0.13324  Biso   1.000  Cu
  Cu2      1.0000 0.00000  0.00000  0.23476  Biso   1.000  Cu
  N49      1.0000 0.00000  0.00000  0.04907  Biso   1.000  N
  C401     1.0000 0.00000  0.00000  0.45080  Biso   1.000  C
  Cu3      1.0000 0.50000  0.50000  0.36676  Biso   1.000  Cu
  Cu4      1.0000 0.50000  0.50000  0.26524  Biso   1.000  Cu
  N50      1.0000 0.50000  0.50000  0.45093  Biso   1.000  N
  C402     1.0000 0.50000  0.50000  0.04920  Biso   1.000  C
  Cu5      1.0000 0.00000  0.00000  0.86676  Biso   1.000  Cu
  Cu6      1.0000 0.00000  0.00000  0.76524  Biso   1.000  Cu
  N51      1.0000 0.00000  0.00000  0.95093  Biso   1.000  N
  C403     1.0000 0.00000  0.00000  0.54920  Biso   1.000  C
  Cu7      1.0000 0.50000  0.50000  0.63324  Biso   1.000  Cu
  Cu8      1.0000 0.50000  0.50000  0.73476  Biso   1.000  Cu
  N52      1.0000 0.50000  0.50000  0.54907  Biso   1.000  N
  C404     1.0000 0.50000  0.50000  0.95080  Biso   1.000  C
  Cu9      1.0000 0.52359  0.04379  0.00000  Biso   1.000  Cu
  N53      1.0000 0.56450  0.11420  0.00000  Biso   1.000  N
  N54      1.0000 0.61800  0.20070  0.00000  Biso   1.000  N
  C405     1.0000 0.53540  0.15880  0.00000  Biso   1.000  C
  C406     1.0000 0.56200  0.20690  0.00000  Biso   1.000  C
  C407     1.0000 0.61890  0.10790  0.00000  Biso   1.000  C
  C408     1.0000 0.64600  0.15410  0.00000  Biso   1.000  C
  Cu10     1.0000 0.47641  0.95621  0.00000  Biso   1.000  Cu
  N55      1.0000 0.43550  0.88580  0.00000  Biso   1.000  N
  N56      1.0000 0.38200  0.79930  0.00000  Biso   1.000  N
  C409     1.0000 0.46460  0.84120  0.00000  Biso   1.000  C
  C410     1.0000 0.43800  0.79310  0.00000  Biso   1.000  C
  C411     1.0000 0.38110  0.89210  0.00000  Biso   1.000  C
  C412     1.0000 0.35400  0.84590  0.00000  Biso   1.000  C
  Cu11     1.0000 0.95621  0.52359  0.00000  Biso   1.000  Cu
  N57      1.0000 0.88580  0.56450  0.00000  Biso   1.000  N
  N58      1.0000 0.79930  0.61800  0.00000  Biso   1.000  N
  C413     1.0000 0.84120  0.53540  0.00000  Biso   1.000  C
  C414     1.0000 0.79310  0.56200  0.00000  Biso   1.000  C
  C415     1.0000 0.89210  0.61890  0.00000  Biso   1.000  C
  C416     1.0000 0.84590  0.64600  0.00000  Biso   1.000  C
  Cu12     1.0000 0.04379  0.47641  0.00000  Biso   1.000  Cu
  N59      1.0000 0.11420  0.43550  0.00000  Biso   1.000  N
  N60      1.0000 0.20070  0.38200  0.00000  Biso   1.000  N
  C417     1.0000 0.15880  0.46460  0.00000  Biso   1.000  C
  C418     1.0000 0.20690  0.43800  0.00000  Biso   1.000  C
  C419     1.0000 0.10790  0.38110  0.00000  Biso   1.000  C
  C420     1.0000 0.15410  0.35400  0.00000  Biso   1.000  C
  Cu13     1.0000 0.97641  0.54379  0.50000  Biso   1.000  Cu
  N61      1.0000 0.93550  0.61420  0.50000  Biso   1.000  N
  N62      1.0000 0.88200  0.70070  0.50000  Biso   1.000  N
  C421     1.0000 0.96460  0.65880  0.50000  Biso   1.000  C
  C422     1.0000 0.93800  0.70690  0.50000  Biso   1.000  C
  C423     1.0000 0.88110  0.60790  0.50000  Biso   1.000  C
  C424     1.0000 0.85400  0.65410  0.50000  Biso   1.000  C
  Cu14     1.0000 0.02359  0.45621  0.50000  Biso   1.000  Cu
  N63      1.0000 0.06450  0.38580  0.50000  Biso   1.000  N
  N64      1.0000 0.11800  0.29930  0.50000  Biso   1.000  N
  C425     1.0000 0.03540  0.34120  0.50000  Biso   1.000  C
  C426     1.0000 0.06200  0.29310  0.50000  Biso   1.000  C
  C427     1.0000 0.11890  0.39210  0.50000  Biso   1.000  C
  C428     1.0000 0.14600  0.34590  0.50000  Biso   1.000  C
  Cu15     1.0000 0.54379  0.02359  0.50000  Biso   1.000  Cu
  N65      1.0000 0.61420  0.06450  0.50000  Biso   1.000  N
  N66      1.0000 0.70070  0.11800  0.50000  Biso   1.000  N
  C429     1.0000 0.65880  0.03540  0.50000  Biso   1.000  C
  C430     1.0000 0.70690  0.06200  0.50000  Biso   1.000  C
  C431     1.0000 0.60790  0.11890  0.50000  Biso   1.000  C
  C432     1.0000 0.65410  0.14600  0.50000  Biso   1.000  C
  Cu16     1.0000 0.45621  0.97641  0.50000  Biso   1.000  Cu
  N67      1.0000 0.38580  0.93550  0.50000  Biso   1.000  N
  N68      1.0000 0.29930  0.88200  0.50000  Biso   1.000  N
  C433     1.0000 0.34120  0.96460  0.50000  Biso   1.000  C
  C434     1.0000 0.29310  0.93800  0.50000  Biso   1.000  C
  C435     1.0000 0.39210  0.88110  0.50000  Biso   1.000  C
  C436     1.0000 0.34590  0.85400  0.50000  Biso   1.000  C
  C437     1.0000 0.66412  0.83588  0.25000  Biso   1.000  C
  H401     1.0000 0.63950  0.86050  0.25000  Biso   1.000  H
  C438     1.0000 0.73690  0.76310  0.25000  Biso   1.000  C
  H402     1.0000 0.76150  0.73850  0.25000  Biso   1.000  H
  C439     1.0000 0.33588  0.16412  0.25000  Biso   1.000  C
  H403     1.0000 0.36050  0.13950  0.25000  Biso   1.000  H
  C440     1.0000 0.26310  0.23690  0.25000  Biso   1.000  C
  H404     1.0000 0.23850  0.26150  0.25000  Biso   1.000  H
  C441     1.0000 0.16412  0.66412  0.25000  Biso   1.000  C
  H405     1.0000 0.13950  0.63950  0.25000  Biso   1.000  H
  C442     1.0000 0.23690  0.73690  0.25000  Biso   1.000  C
  H406     1.0000 0.26150  0.76150  0.25000  Biso   1.000  H
  C443     1.0000 0.83588  0.33588  0.25000  Biso   1.000  C
  H407     1.0000 0.86050  0.36050  0.25000  Biso   1.000  H
  C444     1.0000 0.76310  0.26310  0.25000  Biso   1.000  C
  H408     1.0000 0.73850  0.23850  0.25000  Biso   1.000  H
  C445     1.0000 0.33588  0.16412  0.75000  Biso   1.000  C
  H409     1.0000 0.36050  0.13950  0.75000  Biso   1.000  H
  C446     1.0000 0.26310  0.23690  0.75000  Biso   1.000  C
  H410     1.0000 0.23850  0.26150  0.75000  Biso   1.000  H
  C447     1.0000 0.66412  0.83588  0.75000  Biso   1.000  C
  H411     1.0000 0.63950  0.86050  0.75000  Biso   1.000  H
  C448     1.0000 0.73690  0.76310  0.75000  Biso   1.000  C
  H412     1.0000 0.76150  0.73850  0.75000  Biso   1.000  H
  C449     1.0000 0.83588  0.33588  0.75000  Biso   1.000  C
  H413     1.0000 0.86050  0.36050  0.75000  Biso   1.000  H
  C450     1.0000 0.76310  0.26310  0.75000  Biso   1.000  C
  H414     1.0000 0.73850  0.23850  0.75000  Biso   1.000  H
  C451     1.0000 0.16412  0.66412  0.75000  Biso   1.000  C
  H415     1.0000 0.13950  0.63950  0.75000  Biso   1.000  H
  C452     1.0000 0.23690  0.73690  0.75000  Biso   1.000  C
  H416     1.0000 0.26150  0.76150  0.75000  Biso   1.000  H
