data_image0
_cell_length_a       27.259
_cell_length_b       27.259
_cell_length_c       27.259
_cell_angle_alpha    90
_cell_angle_beta     90
_cell_angle_gamma    90

_symmetry_space_group_name_H-M    "P 1"
_symmetry_int_tables_number       1

loop_
  _symmetry_equiv_pos_as_xyz
  'x, y, z'

loop_
  _atom_site_label
  _atom_site_occupancy
  _atom_site_fract_x
  _atom_site_fract_y
  _atom_site_fract_z
  _atom_site_thermal_displace_type
  _atom_site_B_iso_or_equiv
  _atom_site_type_symbol
  O1       1.0000 0.44689  0.94670  0.66918  Biso   1.000  O
  C1       1.0000 0.42273  0.92567  0.63787  Biso   1.000  C
  C2       1.0000 0.39539  0.87990  0.65305  Biso   1.000  C
  O2       1.0000 0.42226  0.93663  0.59295  Biso   1.000  O
  C3       1.0000 0.37026  0.85116  0.61818  Biso   1.000  C
  C4       1.0000 0.39220  0.86765  0.70336  Biso   1.000  C
  H1       1.0000 0.37050  0.86050  0.58540  Biso   1.000  H
  C5       1.0000 0.34616  0.81077  0.63166  Biso   1.000  C
  C6       1.0000 0.36582  0.82614  0.71625  Biso   1.000  C
  H2       1.0000 0.40740  0.88690  0.72710  Biso   1.000  H
  H3       1.0000 0.33150  0.79130  0.60780  Biso   1.000  H
  C7       1.0000 0.34251  0.79691  0.68232  Biso   1.000  C
  H4       1.0000 0.36380  0.81770  0.74920  Biso   1.000  H
  C8       1.0000 0.31477  0.75349  0.69679  Biso   1.000  C
  C9       1.0000 0.27359  0.73863  0.67033  Biso   1.000  C
  H5       1.0000 0.26380  0.75620  0.64280  Biso   1.000  H
  H6       1.0000 0.61210  0.02920  0.49010  Biso   1.000  H
  H7       1.0000 0.59700  0.98240  0.47640  Biso   1.000  H
  O3       1.0000 0.55311  0.05330  0.66918  Biso   1.000  O
  C10      1.0000 0.57727  0.07433  0.63787  Biso   1.000  C
  C11      1.0000 0.60461  0.12010  0.65305  Biso   1.000  C
  O4       1.0000 0.57774  0.06337  0.59295  Biso   1.000  O
  C12      1.0000 0.62974  0.14884  0.61818  Biso   1.000  C
  C13      1.0000 0.60780  0.13235  0.70336  Biso   1.000  C
  H8       1.0000 0.62950  0.13950  0.58540  Biso   1.000  H
  C14      1.0000 0.65384  0.18923  0.63166  Biso   1.000  C
  C15      1.0000 0.63418  0.17386  0.71625  Biso   1.000  C
  H9       1.0000 0.59260  0.11310  0.72710  Biso   1.000  H
  H10      1.0000 0.66850  0.20870  0.60780  Biso   1.000  H
  C16      1.0000 0.65749  0.20309  0.68232  Biso   1.000  C
  H11      1.0000 0.63620  0.18230  0.74920  Biso   1.000  H
  C17      1.0000 0.68523  0.24651  0.69679  Biso   1.000  C
  C18      1.0000 0.72641  0.26137  0.67033  Biso   1.000  C
  H12      1.0000 0.73620  0.24380  0.64280  Biso   1.000  H
  H13      1.0000 0.38790  0.97080  0.49010  Biso   1.000  H
  H14      1.0000 0.40300  0.01760  0.47640  Biso   1.000  H
  O5       1.0000 0.55311  0.94670  0.33082  Biso   1.000  O
  C19      1.0000 0.57727  0.92567  0.36213  Biso   1.000  C
  C20      1.0000 0.60461  0.87990  0.34695  Biso   1.000  C
  O6       1.0000 0.57774  0.93663  0.40705  Biso   1.000  O
  C21      1.0000 0.62974  0.85116  0.38182  Biso   1.000  C
  C22      1.0000 0.60780  0.86765  0.29664  Biso   1.000  C
  H15      1.0000 0.62950  0.86050  0.41460  Biso   1.000  H
  C23      1.0000 0.65384  0.81077  0.36834  Biso   1.000  C
  C24      1.0000 0.63418  0.82614  0.28375  Biso   1.000  C
  H16      1.0000 0.59260  0.88690  0.27290  Biso   1.000  H
  H17      1.0000 0.66850  0.79130  0.39220  Biso   1.000  H
  C25      1.0000 0.65749  0.79691  0.31768  Biso   1.000  C
  H18      1.0000 0.63620  0.81770  0.25080  Biso   1.000  H
  C26      1.0000 0.68523  0.75349  0.30321  Biso   1.000  C
  C27      1.0000 0.72641  0.73863  0.32967  Biso   1.000  C
  H19      1.0000 0.73620  0.75620  0.35720  Biso   1.000  H
  H20      1.0000 0.38790  0.02920  0.50990  Biso   1.000  H
  H21      1.0000 0.40300  0.98240  0.52360  Biso   1.000  H
  O7       1.0000 0.44689  0.05330  0.33082  Biso   1.000  O
  C28      1.0000 0.42273  0.07433  0.36213  Biso   1.000  C
  C29      1.0000 0.39539  0.12010  0.34695  Biso   1.000  C
  O8       1.0000 0.42226  0.06337  0.40705  Biso   1.000  O
  C30      1.0000 0.37026  0.14884  0.38182  Biso   1.000  C
  C31      1.0000 0.39220  0.13235  0.29664  Biso   1.000  C
  H22      1.0000 0.37050  0.13950  0.41460  Biso   1.000  H
  C32      1.0000 0.34616  0.18923  0.36834  Biso   1.000  C
  C33      1.0000 0.36582  0.17386  0.28375  Biso   1.000  C
  H23      1.0000 0.40740  0.11310  0.27290  Biso   1.000  H
  H24      1.0000 0.33150  0.20870  0.39220  Biso   1.000  H
  C34      1.0000 0.34251  0.20309  0.31768  Biso   1.000  C
  H25      1.0000 0.36380  0.18230  0.25080  Biso   1.000  H
  C35      1.0000 0.31477  0.24651  0.30321  Biso   1.000  C
  C36      1.0000 0.27359  0.26137  0.32967  Biso   1.000  C
  H26      1.0000 0.26380  0.24380  0.35720  Biso   1.000  H
  H27      1.0000 0.61210  0.97080  0.50990  Biso   1.000  H
  H28      1.0000 0.59700  0.01760  0.52360  Biso   1.000  H
  O9       1.0000 0.66918  0.44689  0.94670  Biso   1.000  O
  C37      1.0000 0.63787  0.42273  0.92567  Biso   1.000  C
  C38      1.0000 0.65305  0.39539  0.87990  Biso   1.000  C
  O10      1.0000 0.59295  0.42226  0.93663  Biso   1.000  O
  C39      1.0000 0.61818  0.37026  0.85116  Biso   1.000  C
  C40      1.0000 0.70336  0.39220  0.86765  Biso   1.000  C
  H29      1.0000 0.58540  0.37050  0.86050  Biso   1.000  H
  C41      1.0000 0.63166  0.34616  0.81077  Biso   1.000  C
  C42      1.0000 0.71625  0.36582  0.82614  Biso   1.000  C
  H30      1.0000 0.72710  0.40740  0.88690  Biso   1.000  H
  H31      1.0000 0.60780  0.33150  0.79130  Biso   1.000  H
  C43      1.0000 0.68232  0.34251  0.79691  Biso   1.000  C
  H32      1.0000 0.74920  0.36380  0.81770  Biso   1.000  H
  C44      1.0000 0.69679  0.31477  0.75349  Biso   1.000  C
  C45      1.0000 0.67033  0.27359  0.73863  Biso   1.000  C
  H33      1.0000 0.64280  0.26380  0.75620  Biso   1.000  H
  H34      1.0000 0.49010  0.61210  0.02920  Biso   1.000  H
  H35      1.0000 0.47640  0.59700  0.98240  Biso   1.000  H
  O11      1.0000 0.66918  0.55311  0.05330  Biso   1.000  O
  C46      1.0000 0.63787  0.57727  0.07433  Biso   1.000  C
  C47      1.0000 0.65305  0.60461  0.12010  Biso   1.000  C
  O12      1.0000 0.59295  0.57774  0.06337  Biso   1.000  O
  C48      1.0000 0.61818  0.62974  0.14884  Biso   1.000  C
  C49      1.0000 0.70336  0.60780  0.13235  Biso   1.000  C
  H36      1.0000 0.58540  0.62950  0.13950  Biso   1.000  H
  C50      1.0000 0.63166  0.65384  0.18923  Biso   1.000  C
  C51      1.0000 0.71625  0.63418  0.17386  Biso   1.000  C
  H37      1.0000 0.72710  0.59260  0.11310  Biso   1.000  H
  H38      1.0000 0.60780  0.66850  0.20870  Biso   1.000  H
  C52      1.0000 0.68232  0.65749  0.20309  Biso   1.000  C
  H39      1.0000 0.74920  0.63620  0.18230  Biso   1.000  H
  C53      1.0000 0.69679  0.68523  0.24651  Biso   1.000  C
  C54      1.0000 0.67033  0.72641  0.26137  Biso   1.000  C
  H40      1.0000 0.64280  0.73620  0.24380  Biso   1.000  H
  H41      1.0000 0.49010  0.38790  0.97080  Biso   1.000  H
  H42      1.0000 0.47640  0.40300  0.01760  Biso   1.000  H
  O13      1.0000 0.33082  0.55311  0.94670  Biso   1.000  O
  C55      1.0000 0.36213  0.57727  0.92567  Biso   1.000  C
  C56      1.0000 0.34695  0.60461  0.87990  Biso   1.000  C
  O14      1.0000 0.40705  0.57774  0.93663  Biso   1.000  O
  C57      1.0000 0.38182  0.62974  0.85116  Biso   1.000  C
  C58      1.0000 0.29664  0.60780  0.86765  Biso   1.000  C
  H43      1.0000 0.41460  0.62950  0.86050  Biso   1.000  H
  C59      1.0000 0.36834  0.65384  0.81077  Biso   1.000  C
  C60      1.0000 0.28375  0.63418  0.82614  Biso   1.000  C
  H44      1.0000 0.27290  0.59260  0.88690  Biso   1.000  H
  H45      1.0000 0.39220  0.66850  0.79130  Biso   1.000  H
  C61      1.0000 0.31768  0.65749  0.79691  Biso   1.000  C
  H46      1.0000 0.25080  0.63620  0.81770  Biso   1.000  H
  C62      1.0000 0.30321  0.68523  0.75349  Biso   1.000  C
  C63      1.0000 0.32967  0.72641  0.73863  Biso   1.000  C
  H47      1.0000 0.35720  0.73620  0.75620  Biso   1.000  H
  H48      1.0000 0.50990  0.38790  0.02920  Biso   1.000  H
  H49      1.0000 0.52360  0.40300  0.98240  Biso   1.000  H
  O15      1.0000 0.33082  0.44689  0.05330  Biso   1.000  O
  C64      1.0000 0.36213  0.42273  0.07433  Biso   1.000  C
  C65      1.0000 0.34695  0.39539  0.12010  Biso   1.000  C
  O16      1.0000 0.40705  0.42226  0.06337  Biso   1.000  O
  C66      1.0000 0.38182  0.37026  0.14884  Biso   1.000  C
  C67      1.0000 0.29664  0.39220  0.13235  Biso   1.000  C
  H50      1.0000 0.41460  0.37050  0.13950  Biso   1.000  H
  C68      1.0000 0.36834  0.34616  0.18923  Biso   1.000  C
  C69      1.0000 0.28375  0.36582  0.17386  Biso   1.000  C
  H51      1.0000 0.27290  0.40740  0.11310  Biso   1.000  H
  H52      1.0000 0.39220  0.33150  0.20870  Biso   1.000  H
  C70      1.0000 0.31768  0.34251  0.20309  Biso   1.000  C
  H53      1.0000 0.25080  0.36380  0.18230  Biso   1.000  H
  C71      1.0000 0.30321  0.31477  0.24651  Biso   1.000  C
  C72      1.0000 0.32967  0.27359  0.26137  Biso   1.000  C
  H54      1.0000 0.35720  0.26380  0.24380  Biso   1.000  H
  H55      1.0000 0.50990  0.61210  0.97080  Biso   1.000  H
  H56      1.0000 0.52360  0.59700  0.01760  Biso   1.000  H
  O17      1.0000 0.94670  0.66918  0.44689  Biso   1.000  O
  C73      1.0000 0.92567  0.63787  0.42273  Biso   1.000  C
  C74      1.0000 0.87990  0.65305  0.39539  Biso   1.000  C
  O18      1.0000 0.93663  0.59295  0.42226  Biso   1.000  O
  C75      1.0000 0.85116  0.61818  0.37026  Biso   1.000  C
  C76      1.0000 0.86765  0.70336  0.39220  Biso   1.000  C
  H57      1.0000 0.86050  0.58540  0.37050  Biso   1.000  H
  C77      1.0000 0.81077  0.63166  0.34616  Biso   1.000  C
  C78      1.0000 0.82614  0.71625  0.36582  Biso   1.000  C
  H58      1.0000 0.88690  0.72710  0.40740  Biso   1.000  H
  H59      1.0000 0.79130  0.60780  0.33150  Biso   1.000  H
  C79      1.0000 0.79691  0.68232  0.34251  Biso   1.000  C
  H60      1.0000 0.81770  0.74920  0.36380  Biso   1.000  H
  C80      1.0000 0.75349  0.69679  0.31477  Biso   1.000  C
  C81      1.0000 0.73863  0.67033  0.27359  Biso   1.000  C
  H61      1.0000 0.75620  0.64280  0.26380  Biso   1.000  H
  H62      1.0000 0.02920  0.49010  0.61210  Biso   1.000  H
  H63      1.0000 0.98240  0.47640  0.59700  Biso   1.000  H
  O19      1.0000 0.05330  0.66918  0.55311  Biso   1.000  O
  C82      1.0000 0.07433  0.63787  0.57727  Biso   1.000  C
  C83      1.0000 0.12010  0.65305  0.60461  Biso   1.000  C
  O20      1.0000 0.06337  0.59295  0.57774  Biso   1.000  O
  C84      1.0000 0.14884  0.61818  0.62974  Biso   1.000  C
  C85      1.0000 0.13235  0.70336  0.60780  Biso   1.000  C
  H64      1.0000 0.13950  0.58540  0.62950  Biso   1.000  H
  C86      1.0000 0.18923  0.63166  0.65384  Biso   1.000  C
  C87      1.0000 0.17386  0.71625  0.63418  Biso   1.000  C
  H65      1.0000 0.11310  0.72710  0.59260  Biso   1.000  H
  H66      1.0000 0.20870  0.60780  0.66850  Biso   1.000  H
  C88      1.0000 0.20309  0.68232  0.65749  Biso   1.000  C
  H67      1.0000 0.18230  0.74920  0.63620  Biso   1.000  H
  C89      1.0000 0.24651  0.69679  0.68523  Biso   1.000  C
  C90      1.0000 0.26137  0.67033  0.72641  Biso   1.000  C
  H68      1.0000 0.24380  0.64280  0.73620  Biso   1.000  H
  H69      1.0000 0.97080  0.49010  0.38790  Biso   1.000  H
  H70      1.0000 0.01760  0.47640  0.40300  Biso   1.000  H
  O21      1.0000 0.94670  0.33082  0.55311  Biso   1.000  O
  C91      1.0000 0.92567  0.36213  0.57727  Biso   1.000  C
  C92      1.0000 0.87990  0.34695  0.60461  Biso   1.000  C
  O22      1.0000 0.93663  0.40705  0.57774  Biso   1.000  O
  C93      1.0000 0.85116  0.38182  0.62974  Biso   1.000  C
  C94      1.0000 0.86765  0.29664  0.60780  Biso   1.000  C
  H71      1.0000 0.86050  0.41460  0.62950  Biso   1.000  H
  C95      1.0000 0.81077  0.36834  0.65384  Biso   1.000  C
  C96      1.0000 0.82614  0.28375  0.63418  Biso   1.000  C
  H72      1.0000 0.88690  0.27290  0.59260  Biso   1.000  H
  H73      1.0000 0.79130  0.39220  0.66850  Biso   1.000  H
  C97      1.0000 0.79691  0.31768  0.65749  Biso   1.000  C
  H74      1.0000 0.81770  0.25080  0.63620  Biso   1.000  H
  C98      1.0000 0.75349  0.30321  0.68523  Biso   1.000  C
  C99      1.0000 0.73863  0.32967  0.72641  Biso   1.000  C
  H75      1.0000 0.75620  0.35720  0.73620  Biso   1.000  H
  H76      1.0000 0.02920  0.50990  0.38790  Biso   1.000  H
  H77      1.0000 0.98240  0.52360  0.40300  Biso   1.000  H
  O23      1.0000 0.05330  0.33082  0.44689  Biso   1.000  O
  C100     1.0000 0.07433  0.36213  0.42273  Biso   1.000  C
  C101     1.0000 0.12010  0.34695  0.39539  Biso   1.000  C
  O24      1.0000 0.06337  0.40705  0.42226  Biso   1.000  O
  C102     1.0000 0.14884  0.38182  0.37026  Biso   1.000  C
  C103     1.0000 0.13235  0.29664  0.39220  Biso   1.000  C
  H78      1.0000 0.13950  0.41460  0.37050  Biso   1.000  H
  C104     1.0000 0.18923  0.36834  0.34616  Biso   1.000  C
  C105     1.0000 0.17386  0.28375  0.36582  Biso   1.000  C
  H79      1.0000 0.11310  0.27290  0.40740  Biso   1.000  H
  H80      1.0000 0.20870  0.39220  0.33150  Biso   1.000  H
  C106     1.0000 0.20309  0.31768  0.34251  Biso   1.000  C
  H81      1.0000 0.18230  0.25080  0.36380  Biso   1.000  H
  C107     1.0000 0.24651  0.30321  0.31477  Biso   1.000  C
  C108     1.0000 0.26137  0.32967  0.27359  Biso   1.000  C
  H82      1.0000 0.24380  0.35720  0.26380  Biso   1.000  H
  H83      1.0000 0.97080  0.50990  0.61210  Biso   1.000  H
  H84      1.0000 0.01760  0.52360  0.59700  Biso   1.000  H
  O25      1.0000 0.55311  0.05330  0.33082  Biso   1.000  O
  C109     1.0000 0.57727  0.07433  0.36213  Biso   1.000  C
  C110     1.0000 0.60461  0.12010  0.34695  Biso   1.000  C
  O26      1.0000 0.57774  0.06337  0.40705  Biso   1.000  O
  C111     1.0000 0.62974  0.14884  0.38182  Biso   1.000  C
  C112     1.0000 0.60780  0.13235  0.29664  Biso   1.000  C
  H85      1.0000 0.62950  0.13950  0.41460  Biso   1.000  H
  C113     1.0000 0.65384  0.18923  0.36834  Biso   1.000  C
  C114     1.0000 0.63418  0.17386  0.28375  Biso   1.000  C
  H86      1.0000 0.59260  0.11310  0.27290  Biso   1.000  H
  H87      1.0000 0.66850  0.20870  0.39220  Biso   1.000  H
  C115     1.0000 0.65749  0.20309  0.31768  Biso   1.000  C
  H88      1.0000 0.63620  0.18230  0.25080  Biso   1.000  H
  C116     1.0000 0.68523  0.24651  0.30321  Biso   1.000  C
  C117     1.0000 0.72641  0.26137  0.32967  Biso   1.000  C
  H89      1.0000 0.73620  0.24380  0.35720  Biso   1.000  H
  H90      1.0000 0.38790  0.97080  0.50990  Biso   1.000  H
  H91      1.0000 0.40300  0.01760  0.52360  Biso   1.000  H
  O27      1.0000 0.44689  0.94670  0.33082  Biso   1.000  O
  C118     1.0000 0.42273  0.92567  0.36213  Biso   1.000  C
  C119     1.0000 0.39539  0.87990  0.34695  Biso   1.000  C
  O28      1.0000 0.42226  0.93663  0.40705  Biso   1.000  O
  C120     1.0000 0.37026  0.85116  0.38182  Biso   1.000  C
  C121     1.0000 0.39220  0.86765  0.29664  Biso   1.000  C
  H92      1.0000 0.37050  0.86050  0.41460  Biso   1.000  H
  C122     1.0000 0.34616  0.81077  0.36834  Biso   1.000  C
  C123     1.0000 0.36582  0.82614  0.28375  Biso   1.000  C
  H93      1.0000 0.40740  0.88690  0.27290  Biso   1.000  H
  H94      1.0000 0.33150  0.79130  0.39220  Biso   1.000  H
  C124     1.0000 0.34251  0.79691  0.31768  Biso   1.000  C
  H95      1.0000 0.36380  0.81770  0.25080  Biso   1.000  H
  C125     1.0000 0.31477  0.75349  0.30321  Biso   1.000  C
  C126     1.0000 0.27359  0.73863  0.32967  Biso   1.000  C
  H96      1.0000 0.26380  0.75620  0.35720  Biso   1.000  H
  H97      1.0000 0.61210  0.02920  0.50990  Biso   1.000  H
  H98      1.0000 0.59700  0.98240  0.52360  Biso   1.000  H
  O29      1.0000 0.44689  0.05330  0.66918  Biso   1.000  O
  C127     1.0000 0.42273  0.07433  0.63787  Biso   1.000  C
  C128     1.0000 0.39539  0.12010  0.65305  Biso   1.000  C
  O30      1.0000 0.42226  0.06337  0.59295  Biso   1.000  O
  C129     1.0000 0.37026  0.14884  0.61818  Biso   1.000  C
  C130     1.0000 0.39220  0.13235  0.70336  Biso   1.000  C
  H99      1.0000 0.37050  0.13950  0.58540  Biso   1.000  H
  C131     1.0000 0.34616  0.18923  0.63166  Biso   1.000  C
  C132     1.0000 0.36582  0.17386  0.71625  Biso   1.000  C
  H100     1.0000 0.40740  0.11310  0.72710  Biso   1.000  H
  H101     1.0000 0.33150  0.20870  0.60780  Biso   1.000  H
  C133     1.0000 0.34251  0.20309  0.68232  Biso   1.000  C
  H102     1.0000 0.36380  0.18230  0.74920  Biso   1.000  H
  C134     1.0000 0.31477  0.24651  0.69679  Biso   1.000  C
  C135     1.0000 0.27359  0.26137  0.67033  Biso   1.000  C
  H103     1.0000 0.26380  0.24380  0.64280  Biso   1.000  H
  H104     1.0000 0.61210  0.97080  0.49010  Biso   1.000  H
  H105     1.0000 0.59700  0.01760  0.47640  Biso   1.000  H
  O31      1.0000 0.55311  0.94670  0.66918  Biso   1.000  O
  C136     1.0000 0.57727  0.92567  0.63787  Biso   1.000  C
  C137     1.0000 0.60461  0.87990  0.65305  Biso   1.000  C
  O32      1.0000 0.57774  0.93663  0.59295  Biso   1.000  O
  C138     1.0000 0.62974  0.85116  0.61818  Biso   1.000  C
  C139     1.0000 0.60780  0.86765  0.70336  Biso   1.000  C
  H106     1.0000 0.62950  0.86050  0.58540  Biso   1.000  H
  C140     1.0000 0.65384  0.81077  0.63166  Biso   1.000  C
  C141     1.0000 0.63418  0.82614  0.71625  Biso   1.000  C
  H107     1.0000 0.59260  0.88690  0.72710  Biso   1.000  H
  H108     1.0000 0.66850  0.79130  0.60780  Biso   1.000  H
  C142     1.0000 0.65749  0.79691  0.68232  Biso   1.000  C
  H109     1.0000 0.63620  0.81770  0.74920  Biso   1.000  H
  C143     1.0000 0.68523  0.75349  0.69679  Biso   1.000  C
  C144     1.0000 0.72641  0.73863  0.67033  Biso   1.000  C
  H110     1.0000 0.73620  0.75620  0.64280  Biso   1.000  H
  H111     1.0000 0.38790  0.02920  0.49010  Biso   1.000  H
  H112     1.0000 0.40300  0.98240  0.47640  Biso   1.000  H
  O33      1.0000 0.33082  0.55311  0.05330  Biso   1.000  O
  C145     1.0000 0.36213  0.57727  0.07433  Biso   1.000  C
  C146     1.0000 0.34695  0.60461  0.12010  Biso   1.000  C
  O34      1.0000 0.40705  0.57774  0.06337  Biso   1.000  O
  C147     1.0000 0.38182  0.62974  0.14884  Biso   1.000  C
  C148     1.0000 0.29664  0.60780  0.13235  Biso   1.000  C
  H113     1.0000 0.41460  0.62950  0.13950  Biso   1.000  H
  C149     1.0000 0.36834  0.65384  0.18923  Biso   1.000  C
  C150     1.0000 0.28375  0.63418  0.17386  Biso   1.000  C
  H114     1.0000 0.27290  0.59260  0.11310  Biso   1.000  H
  H115     1.0000 0.39220  0.66850  0.20870  Biso   1.000  H
  C151     1.0000 0.31768  0.65749  0.20309  Biso   1.000  C
  H116     1.0000 0.25080  0.63620  0.18230  Biso   1.000  H
  C152     1.0000 0.30321  0.68523  0.24651  Biso   1.000  C
  C153     1.0000 0.32967  0.72641  0.26137  Biso   1.000  C
  H117     1.0000 0.35720  0.73620  0.24380  Biso   1.000  H
  H118     1.0000 0.50990  0.38790  0.97080  Biso   1.000  H
  H119     1.0000 0.52360  0.40300  0.01760  Biso   1.000  H
  O35      1.0000 0.33082  0.44689  0.94670  Biso   1.000  O
  C154     1.0000 0.36213  0.42273  0.92567  Biso   1.000  C
  C155     1.0000 0.34695  0.39539  0.87990  Biso   1.000  C
  O36      1.0000 0.40705  0.42226  0.93663  Biso   1.000  O
  C156     1.0000 0.38182  0.37026  0.85116  Biso   1.000  C
  C157     1.0000 0.29664  0.39220  0.86765  Biso   1.000  C
  H120     1.0000 0.41460  0.37050  0.86050  Biso   1.000  H
  C158     1.0000 0.36834  0.34616  0.81077  Biso   1.000  C
  C159     1.0000 0.28375  0.36582  0.82614  Biso   1.000  C
  H121     1.0000 0.27290  0.40740  0.88690  Biso   1.000  H
  H122     1.0000 0.39220  0.33150  0.79130  Biso   1.000  H
  C160     1.0000 0.31768  0.34251  0.79691  Biso   1.000  C
  H123     1.0000 0.25080  0.36380  0.81770  Biso   1.000  H
  C161     1.0000 0.30321  0.31477  0.75349  Biso   1.000  C
  C162     1.0000 0.32967  0.27359  0.73863  Biso   1.000  C
  H124     1.0000 0.35720  0.26380  0.75620  Biso   1.000  H
  H125     1.0000 0.50990  0.61210  0.02920  Biso   1.000  H
  H126     1.0000 0.52360  0.59700  0.98240  Biso   1.000  H
  O37      1.0000 0.66918  0.44689  0.05330  Biso   1.000  O
  C163     1.0000 0.63787  0.42273  0.07433  Biso   1.000  C
  C164     1.0000 0.65305  0.39539  0.12010  Biso   1.000  C
  O38      1.0000 0.59295  0.42226  0.06337  Biso   1.000  O
  C165     1.0000 0.61818  0.37026  0.14884  Biso   1.000  C
  C166     1.0000 0.70336  0.39220  0.13235  Biso   1.000  C
  H127     1.0000 0.58540  0.37050  0.13950  Biso   1.000  H
  C167     1.0000 0.63166  0.34616  0.18923  Biso   1.000  C
  C168     1.0000 0.71625  0.36582  0.17386  Biso   1.000  C
  H128     1.0000 0.72710  0.40740  0.11310  Biso   1.000  H
  H129     1.0000 0.60780  0.33150  0.20870  Biso   1.000  H
  C169     1.0000 0.68232  0.34251  0.20309  Biso   1.000  C
  H130     1.0000 0.74920  0.36380  0.18230  Biso   1.000  H
  C170     1.0000 0.69679  0.31477  0.24651  Biso   1.000  C
  C171     1.0000 0.67033  0.27359  0.26137  Biso   1.000  C
  H131     1.0000 0.64280  0.26380  0.24380  Biso   1.000  H
  H132     1.0000 0.49010  0.61210  0.97080  Biso   1.000  H
  H133     1.0000 0.47640  0.59700  0.01760  Biso   1.000  H
  O39      1.0000 0.66918  0.55311  0.94670  Biso   1.000  O
  C172     1.0000 0.63787  0.57727  0.92567  Biso   1.000  C
  C173     1.0000 0.65305  0.60461  0.87990  Biso   1.000  C
  O40      1.0000 0.59295  0.57774  0.93663  Biso   1.000  O
  C174     1.0000 0.61818  0.62974  0.85116  Biso   1.000  C
  C175     1.0000 0.70336  0.60780  0.86765  Biso   1.000  C
  H134     1.0000 0.58540  0.62950  0.86050  Biso   1.000  H
  C176     1.0000 0.63166  0.65384  0.81077  Biso   1.000  C
  C177     1.0000 0.71625  0.63418  0.82614  Biso   1.000  C
  H135     1.0000 0.72710  0.59260  0.88690  Biso   1.000  H
  H136     1.0000 0.60780  0.66850  0.79130  Biso   1.000  H
  C178     1.0000 0.68232  0.65749  0.79691  Biso   1.000  C
  H137     1.0000 0.74920  0.63620  0.81770  Biso   1.000  H
  C179     1.0000 0.69679  0.68523  0.75349  Biso   1.000  C
  C180     1.0000 0.67033  0.72641  0.73863  Biso   1.000  C
  H138     1.0000 0.64280  0.73620  0.75620  Biso   1.000  H
  H139     1.0000 0.49010  0.38790  0.02920  Biso   1.000  H
  H140     1.0000 0.47640  0.40300  0.98240  Biso   1.000  H
  O41      1.0000 0.05330  0.33082  0.55311  Biso   1.000  O
  C181     1.0000 0.07433  0.36213  0.57727  Biso   1.000  C
  C182     1.0000 0.12010  0.34695  0.60461  Biso   1.000  C
  O42      1.0000 0.06337  0.40705  0.57774  Biso   1.000  O
  C183     1.0000 0.14884  0.38182  0.62974  Biso   1.000  C
  C184     1.0000 0.13235  0.29664  0.60780  Biso   1.000  C
  H141     1.0000 0.13950  0.41460  0.62950  Biso   1.000  H
  C185     1.0000 0.18923  0.36834  0.65384  Biso   1.000  C
  C186     1.0000 0.17386  0.28375  0.63418  Biso   1.000  C
  H142     1.0000 0.11310  0.27290  0.59260  Biso   1.000  H
  H143     1.0000 0.20870  0.39220  0.66850  Biso   1.000  H
  C187     1.0000 0.20309  0.31768  0.65749  Biso   1.000  C
  H144     1.0000 0.18230  0.25080  0.63620  Biso   1.000  H
  C188     1.0000 0.24651  0.30321  0.68523  Biso   1.000  C
  C189     1.0000 0.26137  0.32967  0.72641  Biso   1.000  C
  H145     1.0000 0.24380  0.35720  0.73620  Biso   1.000  H
  H146     1.0000 0.97080  0.50990  0.38790  Biso   1.000  H
  H147     1.0000 0.01760  0.52360  0.40300  Biso   1.000  H
  O43      1.0000 0.94670  0.33082  0.44689  Biso   1.000  O
  C190     1.0000 0.92567  0.36213  0.42273  Biso   1.000  C
  C191     1.0000 0.87990  0.34695  0.39539  Biso   1.000  C
  O44      1.0000 0.93663  0.40705  0.42226  Biso   1.000  O
  C192     1.0000 0.85116  0.38182  0.37026  Biso   1.000  C
  C193     1.0000 0.86765  0.29664  0.39220  Biso   1.000  C
  H148     1.0000 0.86050  0.41460  0.37050  Biso   1.000  H
  C194     1.0000 0.81077  0.36834  0.34616  Biso   1.000  C
  C195     1.0000 0.82614  0.28375  0.36582  Biso   1.000  C
  H149     1.0000 0.88690  0.27290  0.40740  Biso   1.000  H
  H150     1.0000 0.79130  0.39220  0.33150  Biso   1.000  H
  C196     1.0000 0.79691  0.31768  0.34251  Biso   1.000  C
  H151     1.0000 0.81770  0.25080  0.36380  Biso   1.000  H
  C197     1.0000 0.75349  0.30321  0.31477  Biso   1.000  C
  C198     1.0000 0.73863  0.32967  0.27359  Biso   1.000  C
  H152     1.0000 0.75620  0.35720  0.26380  Biso   1.000  H
  H153     1.0000 0.02920  0.50990  0.61210  Biso   1.000  H
  H154     1.0000 0.98240  0.52360  0.59700  Biso   1.000  H
  O45      1.0000 0.05330  0.66918  0.44689  Biso   1.000  O
  C199     1.0000 0.07433  0.63787  0.42273  Biso   1.000  C
  C200     1.0000 0.12010  0.65305  0.39539  Biso   1.000  C
  O46      1.0000 0.06337  0.59295  0.42226  Biso   1.000  O
  C201     1.0000 0.14884  0.61818  0.37026  Biso   1.000  C
  C202     1.0000 0.13235  0.70336  0.39220  Biso   1.000  C
  H155     1.0000 0.13950  0.58540  0.37050  Biso   1.000  H
  C203     1.0000 0.18923  0.63166  0.34616  Biso   1.000  C
  C204     1.0000 0.17386  0.71625  0.36582  Biso   1.000  C
  H156     1.0000 0.11310  0.72710  0.40740  Biso   1.000  H
  H157     1.0000 0.20870  0.60780  0.33150  Biso   1.000  H
  C205     1.0000 0.20309  0.68232  0.34251  Biso   1.000  C
  H158     1.0000 0.18230  0.74920  0.36380  Biso   1.000  H
  C206     1.0000 0.24651  0.69679  0.31477  Biso   1.000  C
  C207     1.0000 0.26137  0.67033  0.27359  Biso   1.000  C
  H159     1.0000 0.24380  0.64280  0.26380  Biso   1.000  H
  H160     1.0000 0.97080  0.49010  0.61210  Biso   1.000  H
  H161     1.0000 0.01760  0.47640  0.59700  Biso   1.000  H
  O47      1.0000 0.94670  0.66918  0.55311  Biso   1.000  O
  C208     1.0000 0.92567  0.63787  0.57727  Biso   1.000  C
  C209     1.0000 0.87990  0.65305  0.60461  Biso   1.000  C
  O48      1.0000 0.93663  0.59295  0.57774  Biso   1.000  O
  C210     1.0000 0.85116  0.61818  0.62974  Biso   1.000  C
  C211     1.0000 0.86765  0.70336  0.60780  Biso   1.000  C
  H162     1.0000 0.86050  0.58540  0.62950  Biso   1.000  H
  C212     1.0000 0.81077  0.63166  0.65384  Biso   1.000  C
  C213     1.0000 0.82614  0.71625  0.63418  Biso   1.000  C
  H163     1.0000 0.88690  0.72710  0.59260  Biso   1.000  H
  H164     1.0000 0.79130  0.60780  0.66850  Biso   1.000  H
  C214     1.0000 0.79691  0.68232  0.65749  Biso   1.000  C
  H165     1.0000 0.81770  0.74920  0.63620  Biso   1.000  H
  C215     1.0000 0.75349  0.69679  0.68523  Biso   1.000  C
  C216     1.0000 0.73863  0.67033  0.72641  Biso   1.000  C
  H166     1.0000 0.75620  0.64280  0.73620  Biso   1.000  H
  H167     1.0000 0.02920  0.49010  0.38790  Biso   1.000  H
  H168     1.0000 0.98240  0.47640  0.40300  Biso   1.000  H
  Mg1      1.0000 0.50000  0.00000  0.66943  Biso   1.000  Mg
  O49      1.0000 0.50000  0.00000  0.59380  Biso   1.000  O
  Mg2      1.0000 0.50000  0.00000  0.33057  Biso   1.000  Mg
  O50      1.0000 0.50000  0.00000  0.40620  Biso   1.000  O
  Mg3      1.0000 0.66943  0.50000  0.00000  Biso   1.000  Mg
  O51      1.0000 0.59380  0.50000  0.00000  Biso   1.000  O
  Mg4      1.0000 0.33057  0.50000  0.00000  Biso   1.000  Mg
  O52      1.0000 0.40620  0.50000  0.00000  Biso   1.000  O
  Mg5      1.0000 0.00000  0.66943  0.50000  Biso   1.000  Mg
  O53      1.0000 0.00000  0.59380  0.50000  Biso   1.000  O
  Mg6      1.0000 0.00000  0.33057  0.50000  Biso   1.000  Mg
  O54      1.0000 0.00000  0.40620  0.50000  Biso   1.000  O
  Mg7      1.0000 0.55385  0.00000  0.55774  Biso   1.000  Mg
  Mg8      1.0000 0.44615  0.00000  0.55774  Biso   1.000  Mg
  Mg9      1.0000 0.44615  0.00000  0.44226  Biso   1.000  Mg
  Mg10     1.0000 0.55385  0.00000  0.44226  Biso   1.000  Mg
  Mg11     1.0000 0.55774  0.55385  0.00000  Biso   1.000  Mg
  Mg12     1.0000 0.55774  0.44615  0.00000  Biso   1.000  Mg
  Mg13     1.0000 0.44226  0.44615  0.00000  Biso   1.000  Mg
  Mg14     1.0000 0.44226  0.55385  0.00000  Biso   1.000  Mg
  Mg15     1.0000 0.00000  0.55774  0.55385  Biso   1.000  Mg
  Mg16     1.0000 0.00000  0.55774  0.44615  Biso   1.000  Mg
  Mg17     1.0000 0.00000  0.44226  0.44615  Biso   1.000  Mg
  Mg18     1.0000 0.00000  0.44226  0.55385  Biso   1.000  Mg
  O55      1.0000 0.50000  0.00000  0.50000  Biso   1.000  O
  O56      1.0000 0.50000  0.50000  0.00000  Biso   1.000  O
  O57      1.0000 0.00000  0.50000  0.50000  Biso   1.000  O
  O58      1.0000 0.60724  0.00000  0.50000  Biso   1.000  O
  O59      1.0000 0.39276  0.00000  0.50000  Biso   1.000  O
  O60      1.0000 0.50000  0.60724  0.00000  Biso   1.000  O
  O61      1.0000 0.50000  0.39276  0.00000  Biso   1.000  O
  O62      1.0000 0.00000  0.50000  0.60724  Biso   1.000  O
  O63      1.0000 0.00000  0.50000  0.39276  Biso   1.000  O
  O64      1.0000 0.94689  0.44670  0.16918  Biso   1.000  O
  C217     1.0000 0.92273  0.42567  0.13787  Biso   1.000  C
  C218     1.0000 0.89539  0.37990  0.15305  Biso   1.000  C
  O65      1.0000 0.92226  0.43663  0.09295  Biso   1.000  O
  C219     1.0000 0.87026  0.35116  0.11818  Biso   1.000  C
  C220     1.0000 0.89220  0.36765  0.20336  Biso   1.000  C
  H169     1.0000 0.87050  0.36050  0.08540  Biso   1.000  H
  C221     1.0000 0.84616  0.31077  0.13166  Biso   1.000  C
  C222     1.0000 0.86582  0.32614  0.21625  Biso   1.000  C
  H170     1.0000 0.90740  0.38690  0.22710  Biso   1.000  H
  H171     1.0000 0.83150  0.29130  0.10780  Biso   1.000  H
  C223     1.0000 0.84251  0.29691  0.18232  Biso   1.000  C
  H172     1.0000 0.86380  0.31770  0.24920  Biso   1.000  H
  C224     1.0000 0.81477  0.25349  0.19679  Biso   1.000  C
  C225     1.0000 0.77359  0.23863  0.17033  Biso   1.000  C
  H173     1.0000 0.76380  0.25620  0.14280  Biso   1.000  H
  H174     1.0000 0.11210  0.52920  0.99010  Biso   1.000  H
  H175     1.0000 0.09700  0.48240  0.97640  Biso   1.000  H
  O66      1.0000 0.05311  0.55330  0.16918  Biso   1.000  O
  C226     1.0000 0.07727  0.57433  0.13787  Biso   1.000  C
  C227     1.0000 0.10461  0.62010  0.15305  Biso   1.000  C
  O67      1.0000 0.07774  0.56337  0.09295  Biso   1.000  O
  C228     1.0000 0.12974  0.64884  0.11818  Biso   1.000  C
  C229     1.0000 0.10780  0.63235  0.20336  Biso   1.000  C
  H176     1.0000 0.12950  0.63950  0.08540  Biso   1.000  H
  C230     1.0000 0.15384  0.68923  0.13166  Biso   1.000  C
  C231     1.0000 0.13418  0.67386  0.21625  Biso   1.000  C
  H177     1.0000 0.09260  0.61310  0.22710  Biso   1.000  H
  H178     1.0000 0.16850  0.70870  0.10780  Biso   1.000  H
  C232     1.0000 0.15749  0.70309  0.18232  Biso   1.000  C
  H179     1.0000 0.13620  0.68230  0.24920  Biso   1.000  H
  C233     1.0000 0.18523  0.74651  0.19679  Biso   1.000  C
  C234     1.0000 0.22641  0.76137  0.17033  Biso   1.000  C
  H180     1.0000 0.23620  0.74380  0.14280  Biso   1.000  H
  H181     1.0000 0.88790  0.47080  0.99010  Biso   1.000  H
  H182     1.0000 0.90300  0.51760  0.97640  Biso   1.000  H
  O68      1.0000 0.05311  0.44670  0.83082  Biso   1.000  O
  C235     1.0000 0.07727  0.42567  0.86213  Biso   1.000  C
  C236     1.0000 0.10461  0.37990  0.84695  Biso   1.000  C
  O69      1.0000 0.07774  0.43663  0.90705  Biso   1.000  O
  C237     1.0000 0.12974  0.35116  0.88182  Biso   1.000  C
  C238     1.0000 0.10780  0.36765  0.79664  Biso   1.000  C
  H183     1.0000 0.12950  0.36050  0.91460  Biso   1.000  H
  C239     1.0000 0.15384  0.31077  0.86834  Biso   1.000  C
  C240     1.0000 0.13418  0.32614  0.78375  Biso   1.000  C
  H184     1.0000 0.09260  0.38690  0.77290  Biso   1.000  H
  H185     1.0000 0.16850  0.29130  0.89220  Biso   1.000  H
  C241     1.0000 0.15749  0.29691  0.81768  Biso   1.000  C
  H186     1.0000 0.13620  0.31770  0.75080  Biso   1.000  H
  C242     1.0000 0.18523  0.25349  0.80321  Biso   1.000  C
  C243     1.0000 0.22641  0.23863  0.82967  Biso   1.000  C
  H187     1.0000 0.23620  0.25620  0.85720  Biso   1.000  H
  H188     1.0000 0.88790  0.52920  0.00990  Biso   1.000  H
  H189     1.0000 0.90300  0.48240  0.02360  Biso   1.000  H
  O70      1.0000 0.94689  0.55330  0.83082  Biso   1.000  O
  C244     1.0000 0.92273  0.57433  0.86213  Biso   1.000  C
  C245     1.0000 0.89539  0.62010  0.84695  Biso   1.000  C
  O71      1.0000 0.92226  0.56337  0.90705  Biso   1.000  O
  C246     1.0000 0.87026  0.64884  0.88182  Biso   1.000  C
  C247     1.0000 0.89220  0.63235  0.79664  Biso   1.000  C
  H190     1.0000 0.87050  0.63950  0.91460  Biso   1.000  H
  C248     1.0000 0.84616  0.68923  0.86834  Biso   1.000  C
  C249     1.0000 0.86582  0.67386  0.78375  Biso   1.000  C
  H191     1.0000 0.90740  0.61310  0.77290  Biso   1.000  H
  H192     1.0000 0.83150  0.70870  0.89220  Biso   1.000  H
  C250     1.0000 0.84251  0.70309  0.81768  Biso   1.000  C
  H193     1.0000 0.86380  0.68230  0.75080  Biso   1.000  H
  C251     1.0000 0.81477  0.74651  0.80321  Biso   1.000  C
  C252     1.0000 0.77359  0.76137  0.82967  Biso   1.000  C
  H194     1.0000 0.76380  0.74380  0.85720  Biso   1.000  H
  H195     1.0000 0.11210  0.47080  0.00990  Biso   1.000  H
  H196     1.0000 0.09700  0.51760  0.02360  Biso   1.000  H
  O72      1.0000 0.16918  0.94689  0.44670  Biso   1.000  O
  C253     1.0000 0.13787  0.92273  0.42567  Biso   1.000  C
  C254     1.0000 0.15305  0.89539  0.37990  Biso   1.000  C
  O73      1.0000 0.09295  0.92226  0.43663  Biso   1.000  O
  C255     1.0000 0.11818  0.87026  0.35116  Biso   1.000  C
  C256     1.0000 0.20336  0.89220  0.36765  Biso   1.000  C
  H197     1.0000 0.08540  0.87050  0.36050  Biso   1.000  H
  C257     1.0000 0.13166  0.84616  0.31077  Biso   1.000  C
  C258     1.0000 0.21625  0.86582  0.32614  Biso   1.000  C
  H198     1.0000 0.22710  0.90740  0.38690  Biso   1.000  H
  H199     1.0000 0.10780  0.83150  0.29130  Biso   1.000  H
  C259     1.0000 0.18232  0.84251  0.29691  Biso   1.000  C
  H200     1.0000 0.24920  0.86380  0.31770  Biso   1.000  H
  C260     1.0000 0.19679  0.81477  0.25349  Biso   1.000  C
  C261     1.0000 0.17033  0.77359  0.23863  Biso   1.000  C
  H201     1.0000 0.14280  0.76380  0.25620  Biso   1.000  H
  H202     1.0000 0.99010  0.11210  0.52920  Biso   1.000  H
  H203     1.0000 0.97640  0.09700  0.48240  Biso   1.000  H
  O74      1.0000 0.16918  0.05311  0.55330  Biso   1.000  O
  C262     1.0000 0.13787  0.07727  0.57433  Biso   1.000  C
  C263     1.0000 0.15305  0.10461  0.62010  Biso   1.000  C
  O75      1.0000 0.09295  0.07774  0.56337  Biso   1.000  O
  C264     1.0000 0.11818  0.12974  0.64884  Biso   1.000  C
  C265     1.0000 0.20336  0.10780  0.63235  Biso   1.000  C
  H204     1.0000 0.08540  0.12950  0.63950  Biso   1.000  H
  C266     1.0000 0.13166  0.15384  0.68923  Biso   1.000  C
  C267     1.0000 0.21625  0.13418  0.67386  Biso   1.000  C
  H205     1.0000 0.22710  0.09260  0.61310  Biso   1.000  H
  H206     1.0000 0.10780  0.16850  0.70870  Biso   1.000  H
  C268     1.0000 0.18232  0.15749  0.70309  Biso   1.000  C
  H207     1.0000 0.24920  0.13620  0.68230  Biso   1.000  H
  C269     1.0000 0.19679  0.18523  0.74651  Biso   1.000  C
  C270     1.0000 0.17033  0.22641  0.76137  Biso   1.000  C
  H208     1.0000 0.14280  0.23620  0.74380  Biso   1.000  H
  H209     1.0000 0.99010  0.88790  0.47080  Biso   1.000  H
  H210     1.0000 0.97640  0.90300  0.51760  Biso   1.000  H
  O76      1.0000 0.83082  0.05311  0.44670  Biso   1.000  O
  C271     1.0000 0.86213  0.07727  0.42567  Biso   1.000  C
  C272     1.0000 0.84695  0.10461  0.37990  Biso   1.000  C
  O77      1.0000 0.90705  0.07774  0.43663  Biso   1.000  O
  C273     1.0000 0.88182  0.12974  0.35116  Biso   1.000  C
  C274     1.0000 0.79664  0.10780  0.36765  Biso   1.000  C
  H211     1.0000 0.91460  0.12950  0.36050  Biso   1.000  H
  C275     1.0000 0.86834  0.15384  0.31077  Biso   1.000  C
  C276     1.0000 0.78375  0.13418  0.32614  Biso   1.000  C
  H212     1.0000 0.77290  0.09260  0.38690  Biso   1.000  H
  H213     1.0000 0.89220  0.16850  0.29130  Biso   1.000  H
  C277     1.0000 0.81768  0.15749  0.29691  Biso   1.000  C
  H214     1.0000 0.75080  0.13620  0.31770  Biso   1.000  H
  C278     1.0000 0.80321  0.18523  0.25349  Biso   1.000  C
  C279     1.0000 0.82967  0.22641  0.23863  Biso   1.000  C
  H215     1.0000 0.85720  0.23620  0.25620  Biso   1.000  H
  H216     1.0000 0.00990  0.88790  0.52920  Biso   1.000  H
  H217     1.0000 0.02360  0.90300  0.48240  Biso   1.000  H
  O78      1.0000 0.83082  0.94689  0.55330  Biso   1.000  O
  C280     1.0000 0.86213  0.92273  0.57433  Biso   1.000  C
  C281     1.0000 0.84695  0.89539  0.62010  Biso   1.000  C
  O79      1.0000 0.90705  0.92226  0.56337  Biso   1.000  O
  C282     1.0000 0.88182  0.87026  0.64884  Biso   1.000  C
  C283     1.0000 0.79664  0.89220  0.63235  Biso   1.000  C
  H218     1.0000 0.91460  0.87050  0.63950  Biso   1.000  H
  C284     1.0000 0.86834  0.84616  0.68923  Biso   1.000  C
  C285     1.0000 0.78375  0.86582  0.67386  Biso   1.000  C
  H219     1.0000 0.77290  0.90740  0.61310  Biso   1.000  H
  H220     1.0000 0.89220  0.83150  0.70870  Biso   1.000  H
  C286     1.0000 0.81768  0.84251  0.70309  Biso   1.000  C
  H221     1.0000 0.75080  0.86380  0.68230  Biso   1.000  H
  C287     1.0000 0.80321  0.81477  0.74651  Biso   1.000  C
  C288     1.0000 0.82967  0.77359  0.76137  Biso   1.000  C
  H222     1.0000 0.85720  0.76380  0.74380  Biso   1.000  H
  H223     1.0000 0.00990  0.11210  0.47080  Biso   1.000  H
  H224     1.0000 0.02360  0.09700  0.51760  Biso   1.000  H
  O80      1.0000 0.44670  0.16918  0.94689  Biso   1.000  O
  C289     1.0000 0.42567  0.13787  0.92273  Biso   1.000  C
  C290     1.0000 0.37990  0.15305  0.89539  Biso   1.000  C
  O81      1.0000 0.43663  0.09295  0.92226  Biso   1.000  O
  C291     1.0000 0.35116  0.11818  0.87026  Biso   1.000  C
  C292     1.0000 0.36765  0.20336  0.89220  Biso   1.000  C
  H225     1.0000 0.36050  0.08540  0.87050  Biso   1.000  H
  C293     1.0000 0.31077  0.13166  0.84616  Biso   1.000  C
  C294     1.0000 0.32614  0.21625  0.86582  Biso   1.000  C
  H226     1.0000 0.38690  0.22710  0.90740  Biso   1.000  H
  H227     1.0000 0.29130  0.10780  0.83150  Biso   1.000  H
  C295     1.0000 0.29691  0.18232  0.84251  Biso   1.000  C
  H228     1.0000 0.31770  0.24920  0.86380  Biso   1.000  H
  C296     1.0000 0.25349  0.19679  0.81477  Biso   1.000  C
  C297     1.0000 0.23863  0.17033  0.77359  Biso   1.000  C
  H229     1.0000 0.25620  0.14280  0.76380  Biso   1.000  H
  H230     1.0000 0.52920  0.99010  0.11210  Biso   1.000  H
  H231     1.0000 0.48240  0.97640  0.09700  Biso   1.000  H
  O82      1.0000 0.55330  0.16918  0.05311  Biso   1.000  O
  C298     1.0000 0.57433  0.13787  0.07727  Biso   1.000  C
  C299     1.0000 0.62010  0.15305  0.10461  Biso   1.000  C
  O83      1.0000 0.56337  0.09295  0.07774  Biso   1.000  O
  C300     1.0000 0.64884  0.11818  0.12974  Biso   1.000  C
  C301     1.0000 0.63235  0.20336  0.10780  Biso   1.000  C
  H232     1.0000 0.63950  0.08540  0.12950  Biso   1.000  H
  C302     1.0000 0.68923  0.13166  0.15384  Biso   1.000  C
  C303     1.0000 0.67386  0.21625  0.13418  Biso   1.000  C
  H233     1.0000 0.61310  0.22710  0.09260  Biso   1.000  H
  H234     1.0000 0.70870  0.10780  0.16850  Biso   1.000  H
  C304     1.0000 0.70309  0.18232  0.15749  Biso   1.000  C
  H235     1.0000 0.68230  0.24920  0.13620  Biso   1.000  H
  C305     1.0000 0.74651  0.19679  0.18523  Biso   1.000  C
  C306     1.0000 0.76137  0.17033  0.22641  Biso   1.000  C
  H236     1.0000 0.74380  0.14280  0.23620  Biso   1.000  H
  H237     1.0000 0.47080  0.99010  0.88790  Biso   1.000  H
  H238     1.0000 0.51760  0.97640  0.90300  Biso   1.000  H
  O84      1.0000 0.44670  0.83082  0.05311  Biso   1.000  O
  C307     1.0000 0.42567  0.86213  0.07727  Biso   1.000  C
  C308     1.0000 0.37990  0.84695  0.10461  Biso   1.000  C
  O85      1.0000 0.43663  0.90705  0.07774  Biso   1.000  O
  C309     1.0000 0.35116  0.88182  0.12974  Biso   1.000  C
  C310     1.0000 0.36765  0.79664  0.10780  Biso   1.000  C
  H239     1.0000 0.36050  0.91460  0.12950  Biso   1.000  H
  C311     1.0000 0.31077  0.86834  0.15384  Biso   1.000  C
  C312     1.0000 0.32614  0.78375  0.13418  Biso   1.000  C
  H240     1.0000 0.38690  0.77290  0.09260  Biso   1.000  H
  H241     1.0000 0.29130  0.89220  0.16850  Biso   1.000  H
  C313     1.0000 0.29691  0.81768  0.15749  Biso   1.000  C
  H242     1.0000 0.31770  0.75080  0.13620  Biso   1.000  H
  C314     1.0000 0.25349  0.80321  0.18523  Biso   1.000  C
  C315     1.0000 0.23863  0.82967  0.22641  Biso   1.000  C
  H243     1.0000 0.25620  0.85720  0.23620  Biso   1.000  H
  H244     1.0000 0.52920  0.00990  0.88790  Biso   1.000  H
  H245     1.0000 0.48240  0.02360  0.90300  Biso   1.000  H
  O86      1.0000 0.55330  0.83082  0.94689  Biso   1.000  O
  C316     1.0000 0.57433  0.86213  0.92273  Biso   1.000  C
  C317     1.0000 0.62010  0.84695  0.89539  Biso   1.000  C
  O87      1.0000 0.56337  0.90705  0.92226  Biso   1.000  O
  C318     1.0000 0.64884  0.88182  0.87026  Biso   1.000  C
  C319     1.0000 0.63235  0.79664  0.89220  Biso   1.000  C
  H246     1.0000 0.63950  0.91460  0.87050  Biso   1.000  H
  C320     1.0000 0.68923  0.86834  0.84616  Biso   1.000  C
  C321     1.0000 0.67386  0.78375  0.86582  Biso   1.000  C
  H247     1.0000 0.61310  0.77290  0.90740  Biso   1.000  H
  H248     1.0000 0.70870  0.89220  0.83150  Biso   1.000  H
  C322     1.0000 0.70309  0.81768  0.84251  Biso   1.000  C
  H249     1.0000 0.68230  0.75080  0.86380  Biso   1.000  H
  C323     1.0000 0.74651  0.80321  0.81477  Biso   1.000  C
  C324     1.0000 0.76137  0.82967  0.77359  Biso   1.000  C
  H250     1.0000 0.74380  0.85720  0.76380  Biso   1.000  H
  H251     1.0000 0.47080  0.00990  0.11210  Biso   1.000  H
  H252     1.0000 0.51760  0.02360  0.09700  Biso   1.000  H
  O88      1.0000 0.05311  0.55330  0.83082  Biso   1.000  O
  C325     1.0000 0.07727  0.57433  0.86213  Biso   1.000  C
  C326     1.0000 0.10461  0.62010  0.84695  Biso   1.000  C
  O89      1.0000 0.07774  0.56337  0.90705  Biso   1.000  O
  C327     1.0000 0.12974  0.64884  0.88182  Biso   1.000  C
  C328     1.0000 0.10780  0.63235  0.79664  Biso   1.000  C
  H253     1.0000 0.12950  0.63950  0.91460  Biso   1.000  H
  C329     1.0000 0.15384  0.68923  0.86834  Biso   1.000  C
  C330     1.0000 0.13418  0.67386  0.78375  Biso   1.000  C
  H254     1.0000 0.09260  0.61310  0.77290  Biso   1.000  H
  H255     1.0000 0.16850  0.70870  0.89220  Biso   1.000  H
  C331     1.0000 0.15749  0.70309  0.81768  Biso   1.000  C
  H256     1.0000 0.13620  0.68230  0.75080  Biso   1.000  H
  C332     1.0000 0.18523  0.74651  0.80321  Biso   1.000  C
  C333     1.0000 0.22641  0.76137  0.82967  Biso   1.000  C
  H257     1.0000 0.23620  0.74380  0.85720  Biso   1.000  H
  H258     1.0000 0.88790  0.47080  0.00990  Biso   1.000  H
  H259     1.0000 0.90300  0.51760  0.02360  Biso   1.000  H
  O90      1.0000 0.94689  0.44670  0.83082  Biso   1.000  O
  C334     1.0000 0.92273  0.42567  0.86213  Biso   1.000  C
  C335     1.0000 0.89539  0.37990  0.84695  Biso   1.000  C
  O91      1.0000 0.92226  0.43663  0.90705  Biso   1.000  O
  C336     1.0000 0.87026  0.35116  0.88182  Biso   1.000  C
  C337     1.0000 0.89220  0.36765  0.79664  Biso   1.000  C
  H260     1.0000 0.87050  0.36050  0.91460  Biso   1.000  H
  C338     1.0000 0.84616  0.31077  0.86834  Biso   1.000  C
  C339     1.0000 0.86582  0.32614  0.78375  Biso   1.000  C
  H261     1.0000 0.90740  0.38690  0.77290  Biso   1.000  H
  H262     1.0000 0.83150  0.29130  0.89220  Biso   1.000  H
  C340     1.0000 0.84251  0.29691  0.81768  Biso   1.000  C
  H263     1.0000 0.86380  0.31770  0.75080  Biso   1.000  H
  C341     1.0000 0.81477  0.25349  0.80321  Biso   1.000  C
  C342     1.0000 0.77359  0.23863  0.82967  Biso   1.000  C
  H264     1.0000 0.76380  0.25620  0.85720  Biso   1.000  H
  H265     1.0000 0.11210  0.52920  0.00990  Biso   1.000  H
  H266     1.0000 0.09700  0.48240  0.02360  Biso   1.000  H
  O92      1.0000 0.94689  0.55330  0.16918  Biso   1.000  O
  C343     1.0000 0.92273  0.57433  0.13787  Biso   1.000  C
  C344     1.0000 0.89539  0.62010  0.15305  Biso   1.000  C
  O93      1.0000 0.92226  0.56337  0.09295  Biso   1.000  O
  C345     1.0000 0.87026  0.64884  0.11818  Biso   1.000  C
  C346     1.0000 0.89220  0.63235  0.20336  Biso   1.000  C
  H267     1.0000 0.87050  0.63950  0.08540  Biso   1.000  H
  C347     1.0000 0.84616  0.68923  0.13166  Biso   1.000  C
  C348     1.0000 0.86582  0.67386  0.21625  Biso   1.000  C
  H268     1.0000 0.90740  0.61310  0.22710  Biso   1.000  H
  H269     1.0000 0.83150  0.70870  0.10780  Biso   1.000  H
  C349     1.0000 0.84251  0.70309  0.18232  Biso   1.000  C
  H270     1.0000 0.86380  0.68230  0.24920  Biso   1.000  H
  C350     1.0000 0.81477  0.74651  0.19679  Biso   1.000  C
  C351     1.0000 0.77359  0.76137  0.17033  Biso   1.000  C
  H271     1.0000 0.76380  0.74380  0.14280  Biso   1.000  H
  H272     1.0000 0.11210  0.47080  0.99010  Biso   1.000  H
  H273     1.0000 0.09700  0.51760  0.97640  Biso   1.000  H
  O94      1.0000 0.05311  0.44670  0.16918  Biso   1.000  O
  C352     1.0000 0.07727  0.42567  0.13787  Biso   1.000  C
  C353     1.0000 0.10461  0.37990  0.15305  Biso   1.000  C
  O95      1.0000 0.07774  0.43663  0.09295  Biso   1.000  O
  C354     1.0000 0.12974  0.35116  0.11818  Biso   1.000  C
  C355     1.0000 0.10780  0.36765  0.20336  Biso   1.000  C
  H274     1.0000 0.12950  0.36050  0.08540  Biso   1.000  H
  C356     1.0000 0.15384  0.31077  0.13166  Biso   1.000  C
  C357     1.0000 0.13418  0.32614  0.21625  Biso   1.000  C
  H275     1.0000 0.09260  0.38690  0.22710  Biso   1.000  H
  H276     1.0000 0.16850  0.29130  0.10780  Biso   1.000  H
  C358     1.0000 0.15749  0.29691  0.18232  Biso   1.000  C
  H277     1.0000 0.13620  0.31770  0.24920  Biso   1.000  H
  C359     1.0000 0.18523  0.25349  0.19679  Biso   1.000  C
  C360     1.0000 0.22641  0.23863  0.17033  Biso   1.000  C
  H278     1.0000 0.23620  0.25620  0.14280  Biso   1.000  H
  H279     1.0000 0.88790  0.52920  0.99010  Biso   1.000  H
  H280     1.0000 0.90300  0.48240  0.97640  Biso   1.000  H
  O96      1.0000 0.83082  0.05311  0.55330  Biso   1.000  O
  C361     1.0000 0.86213  0.07727  0.57433  Biso   1.000  C
  C362     1.0000 0.84695  0.10461  0.62010  Biso   1.000  C
  O97      1.0000 0.90705  0.07774  0.56337  Biso   1.000  O
  C363     1.0000 0.88182  0.12974  0.64884  Biso   1.000  C
  C364     1.0000 0.79664  0.10780  0.63235  Biso   1.000  C
  H281     1.0000 0.91460  0.12950  0.63950  Biso   1.000  H
  C365     1.0000 0.86834  0.15384  0.68923  Biso   1.000  C
  C366     1.0000 0.78375  0.13418  0.67386  Biso   1.000  C
  H282     1.0000 0.77290  0.09260  0.61310  Biso   1.000  H
  H283     1.0000 0.89220  0.16850  0.70870  Biso   1.000  H
  C367     1.0000 0.81768  0.15749  0.70309  Biso   1.000  C
  H284     1.0000 0.75080  0.13620  0.68230  Biso   1.000  H
  C368     1.0000 0.80321  0.18523  0.74651  Biso   1.000  C
  C369     1.0000 0.82967  0.22641  0.76137  Biso   1.000  C
  H285     1.0000 0.85720  0.23620  0.74380  Biso   1.000  H
  H286     1.0000 0.00990  0.88790  0.47080  Biso   1.000  H
  H287     1.0000 0.02360  0.90300  0.51760  Biso   1.000  H
  O98      1.0000 0.83082  0.94689  0.44670  Biso   1.000  O
  C370     1.0000 0.86213  0.92273  0.42567  Biso   1.000  C
  C371     1.0000 0.84695  0.89539  0.37990  Biso   1.000  C
  O99      1.0000 0.90705  0.92226  0.43663  Biso   1.000  O
  C372     1.0000 0.88182  0.87026  0.35116  Biso   1.000  C
  C373     1.0000 0.79664  0.89220  0.36765  Biso   1.000  C
  H288     1.0000 0.91460  0.87050  0.36050  Biso   1.000  H
  C374     1.0000 0.86834  0.84616  0.31077  Biso   1.000  C
  C375     1.0000 0.78375  0.86582  0.32614  Biso   1.000  C
  H289     1.0000 0.77290  0.90740  0.38690  Biso   1.000  H
  H290     1.0000 0.89220  0.83150  0.29130  Biso   1.000  H
  C376     1.0000 0.81768  0.84251  0.29691  Biso   1.000  C
  H291     1.0000 0.75080  0.86380  0.31770  Biso   1.000  H
  C377     1.0000 0.80321  0.81477  0.25349  Biso   1.000  C
  C378     1.0000 0.82967  0.77359  0.23863  Biso   1.000  C
  H292     1.0000 0.85720  0.76380  0.25620  Biso   1.000  H
  H293     1.0000 0.00990  0.11210  0.52920  Biso   1.000  H
  H294     1.0000 0.02360  0.09700  0.48240  Biso   1.000  H
  O100     1.0000 0.16918  0.94689  0.55330  Biso   1.000  O
  C379     1.0000 0.13787  0.92273  0.57433  Biso   1.000  C
  C380     1.0000 0.15305  0.89539  0.62010  Biso   1.000  C
  O101     1.0000 0.09295  0.92226  0.56337  Biso   1.000  O
  C381     1.0000 0.11818  0.87026  0.64884  Biso   1.000  C
  C382     1.0000 0.20336  0.89220  0.63235  Biso   1.000  C
  H295     1.0000 0.08540  0.87050  0.63950  Biso   1.000  H
  C383     1.0000 0.13166  0.84616  0.68923  Biso   1.000  C
  C384     1.0000 0.21625  0.86582  0.67386  Biso   1.000  C
  H296     1.0000 0.22710  0.90740  0.61310  Biso   1.000  H
  H297     1.0000 0.10780  0.83150  0.70870  Biso   1.000  H
  C385     1.0000 0.18232  0.84251  0.70309  Biso   1.000  C
  H298     1.0000 0.24920  0.86380  0.68230  Biso   1.000  H
  C386     1.0000 0.19679  0.81477  0.74651  Biso   1.000  C
  C387     1.0000 0.17033  0.77359  0.76137  Biso   1.000  C
  H299     1.0000 0.14280  0.76380  0.74380  Biso   1.000  H
  H300     1.0000 0.99010  0.11210  0.47080  Biso   1.000  H
  H301     1.0000 0.97640  0.09700  0.51760  Biso   1.000  H
  O102     1.0000 0.16918  0.05311  0.44670  Biso   1.000  O
  C388     1.0000 0.13787  0.07727  0.42567  Biso   1.000  C
  C389     1.0000 0.15305  0.10461  0.37990  Biso   1.000  C
  O103     1.0000 0.09295  0.07774  0.43663  Biso   1.000  O
  C390     1.0000 0.11818  0.12974  0.35116  Biso   1.000  C
  C391     1.0000 0.20336  0.10780  0.36765  Biso   1.000  C
  H302     1.0000 0.08540  0.12950  0.36050  Biso   1.000  H
  C392     1.0000 0.13166  0.15384  0.31077  Biso   1.000  C
  C393     1.0000 0.21625  0.13418  0.32614  Biso   1.000  C
  H303     1.0000 0.22710  0.09260  0.38690  Biso   1.000  H
  H304     1.0000 0.10780  0.16850  0.29130  Biso   1.000  H
  C394     1.0000 0.18232  0.15749  0.29691  Biso   1.000  C
  H305     1.0000 0.24920  0.13620  0.31770  Biso   1.000  H
  C395     1.0000 0.19679  0.18523  0.25349  Biso   1.000  C
  C396     1.0000 0.17033  0.22641  0.23863  Biso   1.000  C
  H306     1.0000 0.14280  0.23620  0.25620  Biso   1.000  H
  H307     1.0000 0.99010  0.88790  0.52920  Biso   1.000  H
  H308     1.0000 0.97640  0.90300  0.48240  Biso   1.000  H
  O104     1.0000 0.55330  0.83082  0.05311  Biso   1.000  O
  C397     1.0000 0.57433  0.86213  0.07727  Biso   1.000  C
  C398     1.0000 0.62010  0.84695  0.10461  Biso   1.000  C
  O105     1.0000 0.56337  0.90705  0.07774  Biso   1.000  O
  C399     1.0000 0.64884  0.88182  0.12974  Biso   1.000  C
  C400     1.0000 0.63235  0.79664  0.10780  Biso   1.000  C
  H309     1.0000 0.63950  0.91460  0.12950  Biso   1.000  H
  C401     1.0000 0.68923  0.86834  0.15384  Biso   1.000  C
  C402     1.0000 0.67386  0.78375  0.13418  Biso   1.000  C
  H310     1.0000 0.61310  0.77290  0.09260  Biso   1.000  H
  H311     1.0000 0.70870  0.89220  0.16850  Biso   1.000  H
  C403     1.0000 0.70309  0.81768  0.15749  Biso   1.000  C
  H312     1.0000 0.68230  0.75080  0.13620  Biso   1.000  H
  C404     1.0000 0.74651  0.80321  0.18523  Biso   1.000  C
  C405     1.0000 0.76137  0.82967  0.22641  Biso   1.000  C
  H313     1.0000 0.74380  0.85720  0.23620  Biso   1.000  H
  H314     1.0000 0.47080  0.00990  0.88790  Biso   1.000  H
  H315     1.0000 0.51760  0.02360  0.90300  Biso   1.000  H
  O106     1.0000 0.44670  0.83082  0.94689  Biso   1.000  O
  C406     1.0000 0.42567  0.86213  0.92273  Biso   1.000  C
  C407     1.0000 0.37990  0.84695  0.89539  Biso   1.000  C
  O107     1.0000 0.43663  0.90705  0.92226  Biso   1.000  O
  C408     1.0000 0.35116  0.88182  0.87026  Biso   1.000  C
  C409     1.0000 0.36765  0.79664  0.89220  Biso   1.000  C
  H316     1.0000 0.36050  0.91460  0.87050  Biso   1.000  H
  C410     1.0000 0.31077  0.86834  0.84616  Biso   1.000  C
  C411     1.0000 0.32614  0.78375  0.86582  Biso   1.000  C
  H317     1.0000 0.38690  0.77290  0.90740  Biso   1.000  H
  H318     1.0000 0.29130  0.89220  0.83150  Biso   1.000  H
  C412     1.0000 0.29691  0.81768  0.84251  Biso   1.000  C
  H319     1.0000 0.31770  0.75080  0.86380  Biso   1.000  H
  C413     1.0000 0.25349  0.80321  0.81477  Biso   1.000  C
  C414     1.0000 0.23863  0.82967  0.77359  Biso   1.000  C
  H320     1.0000 0.25620  0.85720  0.76380  Biso   1.000  H
  H321     1.0000 0.52920  0.00990  0.11210  Biso   1.000  H
  H322     1.0000 0.48240  0.02360  0.09700  Biso   1.000  H
  O108     1.0000 0.55330  0.16918  0.94689  Biso   1.000  O
  C415     1.0000 0.57433  0.13787  0.92273  Biso   1.000  C
  C416     1.0000 0.62010  0.15305  0.89539  Biso   1.000  C
  O109     1.0000 0.56337  0.09295  0.92226  Biso   1.000  O
  C417     1.0000 0.64884  0.11818  0.87026  Biso   1.000  C
  C418     1.0000 0.63235  0.20336  0.89220  Biso   1.000  C
  H323     1.0000 0.63950  0.08540  0.87050  Biso   1.000  H
  C419     1.0000 0.68923  0.13166  0.84616  Biso   1.000  C
  C420     1.0000 0.67386  0.21625  0.86582  Biso   1.000  C
  H324     1.0000 0.61310  0.22710  0.90740  Biso   1.000  H
  H325     1.0000 0.70870  0.10780  0.83150  Biso   1.000  H
  C421     1.0000 0.70309  0.18232  0.84251  Biso   1.000  C
  H326     1.0000 0.68230  0.24920  0.86380  Biso   1.000  H
  C422     1.0000 0.74651  0.19679  0.81477  Biso   1.000  C
  C423     1.0000 0.76137  0.17033  0.77359  Biso   1.000  C
  H327     1.0000 0.74380  0.14280  0.76380  Biso   1.000  H
  H328     1.0000 0.47080  0.99010  0.11210  Biso   1.000  H
  H329     1.0000 0.51760  0.97640  0.09700  Biso   1.000  H
  O110     1.0000 0.44670  0.16918  0.05311  Biso   1.000  O
  C424     1.0000 0.42567  0.13787  0.07727  Biso   1.000  C
  C425     1.0000 0.37990  0.15305  0.10461  Biso   1.000  C
  O111     1.0000 0.43663  0.09295  0.07774  Biso   1.000  O
  C426     1.0000 0.35116  0.11818  0.12974  Biso   1.000  C
  C427     1.0000 0.36765  0.20336  0.10780  Biso   1.000  C
  H330     1.0000 0.36050  0.08540  0.12950  Biso   1.000  H
  C428     1.0000 0.31077  0.13166  0.15384  Biso   1.000  C
  C429     1.0000 0.32614  0.21625  0.13418  Biso   1.000  C
  H331     1.0000 0.38690  0.22710  0.09260  Biso   1.000  H
  H332     1.0000 0.29130  0.10780  0.16850  Biso   1.000  H
  C430     1.0000 0.29691  0.18232  0.15749  Biso   1.000  C
  H333     1.0000 0.31770  0.24920  0.13620  Biso   1.000  H
  C431     1.0000 0.25349  0.19679  0.18523  Biso   1.000  C
  C432     1.0000 0.23863  0.17033  0.22641  Biso   1.000  C
  H334     1.0000 0.25620  0.14280  0.23620  Biso   1.000  H
  H335     1.0000 0.52920  0.99010  0.88790  Biso   1.000  H
  H336     1.0000 0.48240  0.97640  0.90300  Biso   1.000  H
  Mg19     1.0000 0.00000  0.50000  0.16943  Biso   1.000  Mg
  O112     1.0000 0.00000  0.50000  0.09380  Biso   1.000  O
  Mg20     1.0000 0.00000  0.50000  0.83057  Biso   1.000  Mg
  O113     1.0000 0.00000  0.50000  0.90620  Biso   1.000  O
  Mg21     1.0000 0.16943  0.00000  0.50000  Biso   1.000  Mg
  O114     1.0000 0.09380  0.00000  0.50000  Biso   1.000  O
  Mg22     1.0000 0.83057  0.00000  0.50000  Biso   1.000  Mg
  O115     1.0000 0.90620  0.00000  0.50000  Biso   1.000  O
  Mg23     1.0000 0.50000  0.16943  0.00000  Biso   1.000  Mg
  O116     1.0000 0.50000  0.09380  0.00000  Biso   1.000  O
  Mg24     1.0000 0.50000  0.83057  0.00000  Biso   1.000  Mg
  O117     1.0000 0.50000  0.90620  0.00000  Biso   1.000  O
  Mg25     1.0000 0.05385  0.50000  0.05774  Biso   1.000  Mg
  Mg26     1.0000 0.94615  0.50000  0.05774  Biso   1.000  Mg
  Mg27     1.0000 0.94615  0.50000  0.94226  Biso   1.000  Mg
  Mg28     1.0000 0.05385  0.50000  0.94226  Biso   1.000  Mg
  Mg29     1.0000 0.05774  0.05385  0.50000  Biso   1.000  Mg
  Mg30     1.0000 0.05774  0.94615  0.50000  Biso   1.000  Mg
  Mg31     1.0000 0.94226  0.94615  0.50000  Biso   1.000  Mg
  Mg32     1.0000 0.94226  0.05385  0.50000  Biso   1.000  Mg
  Mg33     1.0000 0.50000  0.05774  0.05385  Biso   1.000  Mg
  Mg34     1.0000 0.50000  0.05774  0.94615  Biso   1.000  Mg
  Mg35     1.0000 0.50000  0.94226  0.94615  Biso   1.000  Mg
  Mg36     1.0000 0.50000  0.94226  0.05385  Biso   1.000  Mg
  O118     1.0000 0.00000  0.50000  0.00000  Biso   1.000  O
  O119     1.0000 0.00000  0.00000  0.50000  Biso   1.000  O
  O120     1.0000 0.50000  0.00000  0.00000  Biso   1.000  O
  O121     1.0000 0.10724  0.50000  0.00000  Biso   1.000  O
  O122     1.0000 0.89276  0.50000  0.00000  Biso   1.000  O
  O123     1.0000 0.00000  0.10724  0.50000  Biso   1.000  O
  O124     1.0000 0.00000  0.89276  0.50000  Biso   1.000  O
  O125     1.0000 0.50000  0.00000  0.10724  Biso   1.000  O
  O126     1.0000 0.50000  0.00000  0.89276  Biso   1.000  O
