data_image0
_cell_length_a       10.5892
_cell_length_b       19.97
_cell_length_c       18.98
_cell_angle_alpha    90
_cell_angle_beta     91.181
_cell_angle_gamma    90

_symmetry_space_group_name_H-M    "P 1"
_symmetry_int_tables_number       1

loop_
  _symmetry_equiv_pos_as_xyz
  'x, y, z'

loop_
  _atom_site_label
  _atom_site_occupancy
  _atom_site_fract_x
  _atom_site_fract_y
  _atom_site_fract_z
  _atom_site_thermal_displace_type
  _atom_site_B_iso_or_equiv
  _atom_site_type_symbol
  Ni1      1.0000 0.18465  0.23229  0.12702  Biso   1.000  Ni
  Ni2      1.0000 0.66794  0.12160  0.22588  Biso   1.000  Ni
  S1       1.0000 0.74999  0.49339  0.00031  Biso   1.000  S
  C1       1.0000 0.72640  0.27690  0.07100  Biso   1.000  C
  C2       1.0000 0.84390  0.30820  0.06800  Biso   1.000  C
  C3       1.0000 0.85100  0.37430  0.04620  Biso   1.000  C
  H1       1.0000 0.92900  0.39560  0.04350  Biso   1.000  H
  C4       1.0000 0.74100  0.40860  0.02840  Biso   1.000  C
  C5       1.0000 0.62510  0.37830  0.03110  Biso   1.000  C
  H2       1.0000 0.55200  0.40210  0.01970  Biso   1.000  H
  C6       1.0000 0.61830  0.31240  0.05090  Biso   1.000  C
  H3       1.0000 0.54020  0.29110  0.05080  Biso   1.000  H
  C7       1.0000 0.75970  0.53880  0.07970  Biso   1.000  C
  C8       1.0000 0.87630  0.56380  0.10460  Biso   1.000  C
  H4       1.0000 0.95010  0.55560  0.08020  Biso   1.000  H
  C9       1.0000 0.87850  0.60060  0.16560  Biso   1.000  C
  H5       1.0000 0.95560  0.61750  0.18180  Biso   1.000  H
  C10      1.0000 0.77170  0.61390  0.20460  Biso   1.000  C
  C11      1.0000 0.65580  0.58760  0.18000  Biso   1.000  C
  C12      1.0000 0.65070  0.55020  0.11760  Biso   1.000  C
  H6       1.0000 0.57390  0.53290  0.10140  Biso   1.000  H
  C13      1.0000 0.70640  0.20610  0.09680  Biso   1.000  C
  C14      1.0000 0.96570  0.27170  0.08670  Biso   1.000  C
  C15      1.0000 0.53140  0.60150  0.21310  Biso   1.000  C
  C16      1.0000 0.78820  0.65600  0.27030  Biso   1.000  C
  C17      1.0000 0.85880  0.01390  0.25920  Biso   1.000  C
  H7       1.0000 0.81280  0.99910  0.29750  Biso   1.000  H
  C18      1.0000 0.91880  0.06970  0.17000  Biso   1.000  C
  H8       1.0000 0.92170  0.10140  0.13420  Biso   1.000  H
  C19      1.0000 0.00630  0.02340  0.18350  Biso   1.000  C
  H9       1.0000 0.08000  0.01670  0.15860  Biso   1.000  H
  C20      1.0000 0.04040  0.93330  0.27450  Biso   1.000  C
  H10      1.0000 0.02270  0.93280  0.32440  Biso   1.000  H
  H11      1.0000 0.13000  0.94170  0.26950  Biso   1.000  H
  C21      1.0000 0.00370  0.79130  0.13530  Biso   1.000  C
  H12      1.0000 0.93310  0.77170  0.15970  Biso   1.000  H
  H13      1.0000 0.98260  0.79250  0.08540  Biso   1.000  H
  C22      1.0000 0.00690  0.86410  0.24210  Biso   1.000  C
  H14      1.0000 0.05930  0.83000  0.26430  Biso   1.000  H
  H15      1.0000 0.91940  0.85370  0.25160  Biso   1.000  H
  C23      1.0000 0.02630  0.86270  0.16220  Biso   1.000  C
  H16      1.0000 0.11160  0.87670  0.15180  Biso   1.000  H
  H17      1.0000 0.96780  0.89330  0.13890  Biso   1.000  H
  C24      1.0000 0.14220  0.71090  0.20370  Biso   1.000  C
  H18      1.0000 0.09070  0.70730  0.24260  Biso   1.000  H
  C25      1.0000 0.21660  0.74410  0.10230  Biso   1.000  C
  H19      1.0000 0.22690  0.76680  0.05990  Biso   1.000  H
  C26      1.0000 0.29600  0.69890  0.13210  Biso   1.000  C
  H20      1.0000 0.37060  0.68380  0.11250  Biso   1.000  H
  N1       1.0000 0.25310  0.22280  0.02910  Biso   1.000  N
  C27      1.0000 0.25550  0.26990  0.97800  Biso   1.000  C
  H21      1.0000 0.21740  0.31180  0.98080  Biso   1.000  H
  C28      1.0000 0.32020  0.24790  0.92290  Biso   1.000  C
  H22      1.0000 0.32080  0.26440  0.87710  Biso   1.000  H
  C29      1.0000 0.59480  0.13470  0.74410  Biso   1.000  C
  H23      1.0000 0.63300  0.17660  0.75900  Biso   1.000  H
  H24      1.0000 0.65470  0.11100  0.71530  Biso   1.000  H
  N2       1.0000 0.38460  0.19540  0.95080  Biso   1.000  N
  C30      1.0000 0.34220  0.17950  0.01420  Biso   1.000  C
  H25      1.0000 0.37030  0.14430  0.04260  Biso   1.000  H
  C31      1.0000 0.48450  0.15730  0.91450  Biso   1.000  C
  H26      1.0000 0.52390  0.12800  0.94930  Biso   1.000  H
  H27      1.0000 0.54820  0.18920  0.90060  Biso   1.000  H
  C32      1.0000 0.45270  0.11580  0.85190  Biso   1.000  C
  H28      1.0000 0.39610  0.14130  0.82130  Biso   1.000  H
  H29      1.0000 0.40690  0.07660  0.86740  Biso   1.000  H
  C33      1.0000 0.56370  0.09250  0.80870  Biso   1.000  C
  H30      1.0000 0.54670  0.04700  0.79310  Biso   1.000  H
  H31      1.0000 0.63800  0.09100  0.83940  Biso   1.000  H
  C34      1.0000 0.42140  0.20620  0.69420  Biso   1.000  C
  H32      1.0000 0.45150  0.24640  0.71260  Biso   1.000  H
  C35      1.0000 0.40770  0.10010  0.66990  Biso   1.000  C
  H33      1.0000 0.42450  0.05440  0.66740  Biso   1.000  H
  C36      1.0000 0.30770  0.13260  0.64160  Biso   1.000  C
  H34      1.0000 0.24240  0.11240  0.61590  Biso   1.000  H
  N3       1.0000 0.82330  0.06317  0.21770  Biso   1.000  N
  N4       1.0000 0.96830  0.98740  0.24030  Biso   1.000  N
  N5       1.0000 0.11760  0.74980  0.14720  Biso   1.000  N
  N6       1.0000 0.24960  0.67860  0.19600  Biso   1.000  N
  N7       1.0000 0.47970  0.14790  0.70330  Biso   1.000  N
  N8       1.0000 0.31610  0.20070  0.65610  Biso   1.000  N
  O1       1.0000 0.71730  0.19792  0.16086  Biso   1.000  O
  O2       1.0000 0.67560  0.16285  0.05230  Biso   1.000  O
  O3       1.0000 0.06060  0.30660  0.10420  Biso   1.000  O
  O4       1.0000 0.97190  0.21003  0.08530  Biso   1.000  O
  O5       1.0000 0.51620  0.65654  0.24420  Biso   1.000  O
  O6       1.0000 0.44400  0.55913  0.20872  Biso   1.000  O
  O7       1.0000 0.74220  0.64076  0.32720  Biso   1.000  O
  O8       1.0000 0.85640  0.70737  0.26560  Biso   1.000  O
  O9       1.0000 0.63100  0.50975  0.96697  Biso   1.000  O
  O10      1.0000 0.86460  0.50370  0.96339  Biso   1.000  O
  H35      1.0000 0.99030  0.91440  0.31180  Biso   1.000  H
  H36      1.0000 0.11640  0.95210  0.29610  Biso   1.000  H
  H37      1.0000 0.93360  0.76170  0.12410  Biso   1.000  H
  H38      1.0000 0.01730  0.81910  0.09430  Biso   1.000  H
  C37      1.0000 0.07770  0.87760  0.22450  Biso   1.000  C
  H39      1.0000 0.13590  0.84750  0.24880  Biso   1.000  H
  H40      1.0000 0.12130  0.89680  0.18490  Biso   1.000  H
  C38      1.0000 0.96380  0.83780  0.19720  Biso   1.000  C
  H41      1.0000 0.89830  0.86840  0.18100  Biso   1.000  H
  H42      1.0000 0.93020  0.81100  0.23510  Biso   1.000  H
  H43      1.0000 0.36010  0.27430  0.88970  Biso   1.000  H
  H44      1.0000 0.64510  0.17520  0.74370  Biso   1.000  H
  H45      1.0000 0.64180  0.10080  0.71910  Biso   1.000  H
  N9       1.0000 0.31710  0.17810  0.92430  Biso   1.000  N
  C39      1.0000 0.28230  0.16610  0.99160  Biso   1.000  C
  H46      1.0000 0.27860  0.12330  0.01070  Biso   1.000  H
  C40      1.0000 0.36950  0.12920  0.87150  Biso   1.000  C
  H47      1.0000 0.31770  0.12780  0.82870  Biso   1.000  H
  H48      1.0000 0.37630  0.08450  0.89110  Biso   1.000  H
  C41      1.0000 0.49890  0.15910  0.85800  Biso   1.000  C
  H49      1.0000 0.53770  0.17200  0.90270  Biso   1.000  H
  H50      1.0000 0.48820  0.19940  0.82990  Biso   1.000  H
  C42      1.0000 0.58700  0.11200  0.82040  Biso   1.000  C
  H51      1.0000 0.55540  0.06650  0.82250  Biso   1.000  H
  H52      1.0000 0.67040  0.11310  0.84270  Biso   1.000  H
  Ni3      1.0000 0.81535  0.73229  0.37298  Biso   1.000  Ni
  Ni4      1.0000 0.33206  0.62160  0.27412  Biso   1.000  Ni
  S2       1.0000 0.25001  0.99339  0.49969  Biso   1.000  S
  C43      1.0000 0.27360  0.77690  0.42900  Biso   1.000  C
  C44      1.0000 0.15610  0.80820  0.43200  Biso   1.000  C
  C45      1.0000 0.14900  0.87430  0.45380  Biso   1.000  C
  H53      1.0000 0.07100  0.89560  0.45650  Biso   1.000  H
  C46      1.0000 0.25900  0.90860  0.47160  Biso   1.000  C
  C47      1.0000 0.37490  0.87830  0.46890  Biso   1.000  C
  H54      1.0000 0.44800  0.90210  0.48030  Biso   1.000  H
  C48      1.0000 0.38170  0.81240  0.44910  Biso   1.000  C
  H55      1.0000 0.45980  0.79110  0.44920  Biso   1.000  H
  C49      1.0000 0.24030  0.03880  0.42030  Biso   1.000  C
  C50      1.0000 0.12370  0.06380  0.39540  Biso   1.000  C
  H56      1.0000 0.04990  0.05560  0.41980  Biso   1.000  H
  C51      1.0000 0.12150  0.10060  0.33440  Biso   1.000  C
  H57      1.0000 0.04440  0.11750  0.31820  Biso   1.000  H
  C52      1.0000 0.22830  0.11390  0.29540  Biso   1.000  C
  C53      1.0000 0.34420  0.08760  0.32000  Biso   1.000  C
  C54      1.0000 0.34930  0.05020  0.38240  Biso   1.000  C
  H58      1.0000 0.42610  0.03290  0.39860  Biso   1.000  H
  C55      1.0000 0.29360  0.70610  0.40320  Biso   1.000  C
  C56      1.0000 0.03430  0.77170  0.41330  Biso   1.000  C
  C57      1.0000 0.46860  0.10150  0.28690  Biso   1.000  C
  C58      1.0000 0.21180  0.15600  0.22970  Biso   1.000  C
  C59      1.0000 0.14120  0.51390  0.24080  Biso   1.000  C
  H59      1.0000 0.18720  0.49910  0.20250  Biso   1.000  H
  C60      1.0000 0.08120  0.56970  0.33000  Biso   1.000  C
  H60      1.0000 0.07830  0.60140  0.36580  Biso   1.000  H
  C61      1.0000 0.99370  0.52340  0.31650  Biso   1.000  C
  H61      1.0000 0.92000  0.51670  0.34140  Biso   1.000  H
  C62      1.0000 0.95960  0.43330  0.22550  Biso   1.000  C
  H62      1.0000 0.97730  0.43280  0.17560  Biso   1.000  H
  H63      1.0000 0.87000  0.44170  0.23050  Biso   1.000  H
  C63      1.0000 0.99630  0.29130  0.36470  Biso   1.000  C
  H64      1.0000 0.06690  0.27170  0.34030  Biso   1.000  H
  H65      1.0000 0.01740  0.29250  0.41460  Biso   1.000  H
  C64      1.0000 0.99310  0.36410  0.25790  Biso   1.000  C
  H66      1.0000 0.94070  0.33000  0.23570  Biso   1.000  H
  H67      1.0000 0.08060  0.35370  0.24840  Biso   1.000  H
  C65      1.0000 0.97370  0.36270  0.33780  Biso   1.000  C
  H68      1.0000 0.88840  0.37670  0.34820  Biso   1.000  H
  H69      1.0000 0.03220  0.39330  0.36110  Biso   1.000  H
  C66      1.0000 0.85780  0.21090  0.29630  Biso   1.000  C
  H70      1.0000 0.90930  0.20730  0.25740  Biso   1.000  H
  C67      1.0000 0.78340  0.24410  0.39770  Biso   1.000  C
  H71      1.0000 0.77310  0.26680  0.44010  Biso   1.000  H
  C68      1.0000 0.70400  0.19890  0.36790  Biso   1.000  C
  H72      1.0000 0.62940  0.18380  0.38750  Biso   1.000  H
  N10      1.0000 0.74690  0.72280  0.47090  Biso   1.000  N
  C69      1.0000 0.74450  0.76990  0.52200  Biso   1.000  C
  H73      1.0000 0.78260  0.81180  0.51920  Biso   1.000  H
  C70      1.0000 0.67980  0.74790  0.57710  Biso   1.000  C
  H74      1.0000 0.67920  0.76440  0.62290  Biso   1.000  H
  C71      1.0000 0.40520  0.63470  0.75590  Biso   1.000  C
  H75      1.0000 0.36700  0.67660  0.74100  Biso   1.000  H
  H76      1.0000 0.34530  0.61100  0.78470  Biso   1.000  H
  N11      1.0000 0.61540  0.69540  0.54920  Biso   1.000  N
  C72      1.0000 0.65780  0.67950  0.48580  Biso   1.000  C
  H77      1.0000 0.62970  0.64430  0.45740  Biso   1.000  H
  C73      1.0000 0.51550  0.65730  0.58550  Biso   1.000  C
  H78      1.0000 0.47610  0.62800  0.55070  Biso   1.000  H
  H79      1.0000 0.45180  0.68920  0.59940  Biso   1.000  H
  C74      1.0000 0.54730  0.61580  0.64810  Biso   1.000  C
  H80      1.0000 0.60390  0.64130  0.67870  Biso   1.000  H
  H81      1.0000 0.59310  0.57660  0.63260  Biso   1.000  H
  C75      1.0000 0.43630  0.59250  0.69130  Biso   1.000  C
  H82      1.0000 0.45330  0.54700  0.70690  Biso   1.000  H
  H83      1.0000 0.36200  0.59100  0.66060  Biso   1.000  H
  C76      1.0000 0.57860  0.70620  0.80580  Biso   1.000  C
  H84      1.0000 0.54850  0.74640  0.78740  Biso   1.000  H
  C77      1.0000 0.59230  0.60010  0.83010  Biso   1.000  C
  H85      1.0000 0.57550  0.55440  0.83260  Biso   1.000  H
  C78      1.0000 0.69230  0.63260  0.85840  Biso   1.000  C
  H86      1.0000 0.75760  0.61240  0.88410  Biso   1.000  H
  N12      1.0000 0.17670  0.56317  0.28230  Biso   1.000  N
  N13      1.0000 0.03170  0.48740  0.25970  Biso   1.000  N
  N14      1.0000 0.88240  0.24980  0.35280  Biso   1.000  N
  N15      1.0000 0.75040  0.17860  0.30400  Biso   1.000  N
  N16      1.0000 0.52030  0.64790  0.79670  Biso   1.000  N
  N17      1.0000 0.68390  0.70070  0.84390  Biso   1.000  N
  O11      1.0000 0.28270  0.69792  0.33914  Biso   1.000  O
  O12      1.0000 0.32440  0.66285  0.44770  Biso   1.000  O
  O13      1.0000 0.93940  0.80660  0.39580  Biso   1.000  O
  O14      1.0000 0.02810  0.71003  0.41470  Biso   1.000  O
  O15      1.0000 0.48380  0.15654  0.25580  Biso   1.000  O
  O16      1.0000 0.55600  0.05913  0.29128  Biso   1.000  O
  O17      1.0000 0.25780  0.14076  0.17280  Biso   1.000  O
  O18      1.0000 0.14360  0.20737  0.23440  Biso   1.000  O
  O19      1.0000 0.36900  0.00975  0.53303  Biso   1.000  O
  O20      1.0000 0.13540  0.00370  0.53661  Biso   1.000  O
  H87      1.0000 0.00970  0.41440  0.18820  Biso   1.000  H
  H88      1.0000 0.88360  0.45210  0.20390  Biso   1.000  H
  H89      1.0000 0.06640  0.26170  0.37590  Biso   1.000  H
  H90      1.0000 0.98270  0.31910  0.40570  Biso   1.000  H
  C79      1.0000 0.92230  0.37760  0.27550  Biso   1.000  C
  H91      1.0000 0.86410  0.34750  0.25120  Biso   1.000  H
  H92      1.0000 0.87870  0.39680  0.31510  Biso   1.000  H
  C80      1.0000 0.03620  0.33780  0.30280  Biso   1.000  C
  H93      1.0000 0.10170  0.36840  0.31900  Biso   1.000  H
  H94      1.0000 0.06980  0.31100  0.26490  Biso   1.000  H
  H95      1.0000 0.63990  0.77430  0.61030  Biso   1.000  H
  H96      1.0000 0.35490  0.67520  0.75630  Biso   1.000  H
  H97      1.0000 0.35820  0.60080  0.78090  Biso   1.000  H
  N18      1.0000 0.68290  0.67810  0.57570  Biso   1.000  N
  C81      1.0000 0.71770  0.66610  0.50840  Biso   1.000  C
  H98      1.0000 0.72140  0.62330  0.48930  Biso   1.000  H
  C82      1.0000 0.63050  0.62920  0.62850  Biso   1.000  C
  H99      1.0000 0.68230  0.62780  0.67130  Biso   1.000  H
  H100     1.0000 0.62370  0.58450  0.60890  Biso   1.000  H
  C83      1.0000 0.50110  0.65910  0.64200  Biso   1.000  C
  H101     1.0000 0.46230  0.67200  0.59730  Biso   1.000  H
  H102     1.0000 0.51180  0.69940  0.67010  Biso   1.000  H
  C84      1.0000 0.41300  0.61200  0.67960  Biso   1.000  C
  H103     1.0000 0.44460  0.56650  0.67750  Biso   1.000  H
  H104     1.0000 0.32960  0.61310  0.65730  Biso   1.000  H
  Ni5      1.0000 0.81535  0.76771  0.87298  Biso   1.000  Ni
  Ni6      1.0000 0.33206  0.87840  0.77412  Biso   1.000  Ni
  S3       1.0000 0.25001  0.50661  0.99969  Biso   1.000  S
  C85      1.0000 0.27360  0.72310  0.92900  Biso   1.000  C
  C86      1.0000 0.15610  0.69180  0.93200  Biso   1.000  C
  C87      1.0000 0.14900  0.62570  0.95380  Biso   1.000  C
  H105     1.0000 0.07100  0.60440  0.95650  Biso   1.000  H
  C88      1.0000 0.25900  0.59140  0.97160  Biso   1.000  C
  C89      1.0000 0.37490  0.62170  0.96890  Biso   1.000  C
  H106     1.0000 0.44800  0.59790  0.98030  Biso   1.000  H
  C90      1.0000 0.38170  0.68760  0.94910  Biso   1.000  C
  H107     1.0000 0.45980  0.70890  0.94920  Biso   1.000  H
  C91      1.0000 0.24030  0.46120  0.92030  Biso   1.000  C
  C92      1.0000 0.12370  0.43620  0.89540  Biso   1.000  C
  H108     1.0000 0.04990  0.44440  0.91980  Biso   1.000  H
  C93      1.0000 0.12150  0.39940  0.83440  Biso   1.000  C
  H109     1.0000 0.04440  0.38250  0.81820  Biso   1.000  H
  C94      1.0000 0.22830  0.38610  0.79540  Biso   1.000  C
  C95      1.0000 0.34420  0.41240  0.82000  Biso   1.000  C
  C96      1.0000 0.34930  0.44980  0.88240  Biso   1.000  C
  H110     1.0000 0.42610  0.46710  0.89860  Biso   1.000  H
  C97      1.0000 0.29360  0.79390  0.90320  Biso   1.000  C
  C98      1.0000 0.03430  0.72830  0.91330  Biso   1.000  C
  C99      1.0000 0.46860  0.39850  0.78690  Biso   1.000  C
  C100     1.0000 0.21180  0.34400  0.72970  Biso   1.000  C
  C101     1.0000 0.14120  0.98610  0.74080  Biso   1.000  C
  H111     1.0000 0.18720  0.00090  0.70250  Biso   1.000  H
  C102     1.0000 0.08120  0.93030  0.83000  Biso   1.000  C
  H112     1.0000 0.07830  0.89860  0.86580  Biso   1.000  H
  C103     1.0000 0.99370  0.97660  0.81650  Biso   1.000  C
  H113     1.0000 0.92000  0.98330  0.84140  Biso   1.000  H
  C104     1.0000 0.95960  0.06670  0.72550  Biso   1.000  C
  H114     1.0000 0.97730  0.06720  0.67560  Biso   1.000  H
  H115     1.0000 0.87000  0.05830  0.73050  Biso   1.000  H
  C105     1.0000 0.99630  0.20870  0.86470  Biso   1.000  C
  H116     1.0000 0.06690  0.22830  0.84030  Biso   1.000  H
  H117     1.0000 0.01740  0.20750  0.91460  Biso   1.000  H
  C106     1.0000 0.99310  0.13590  0.75790  Biso   1.000  C
  H118     1.0000 0.94070  0.17000  0.73570  Biso   1.000  H
  H119     1.0000 0.08060  0.14630  0.74840  Biso   1.000  H
  C107     1.0000 0.97370  0.13730  0.83780  Biso   1.000  C
  H120     1.0000 0.88840  0.12330  0.84820  Biso   1.000  H
  H121     1.0000 0.03220  0.10670  0.86110  Biso   1.000  H
  C108     1.0000 0.85780  0.28910  0.79630  Biso   1.000  C
  H122     1.0000 0.90930  0.29270  0.75740  Biso   1.000  H
  C109     1.0000 0.78340  0.25590  0.89770  Biso   1.000  C
  H123     1.0000 0.77310  0.23320  0.94010  Biso   1.000  H
  C110     1.0000 0.70400  0.30110  0.86790  Biso   1.000  C
  H124     1.0000 0.62940  0.31620  0.88750  Biso   1.000  H
  N19      1.0000 0.74690  0.77720  0.97090  Biso   1.000  N
  C111     1.0000 0.74450  0.73010  0.02200  Biso   1.000  C
  H125     1.0000 0.78260  0.68820  0.01920  Biso   1.000  H
  C112     1.0000 0.67980  0.75210  0.07710  Biso   1.000  C
  H126     1.0000 0.67920  0.73560  0.12290  Biso   1.000  H
  C113     1.0000 0.40520  0.86530  0.25590  Biso   1.000  C
  H127     1.0000 0.36700  0.82340  0.24100  Biso   1.000  H
  H128     1.0000 0.34530  0.88900  0.28470  Biso   1.000  H
  N20      1.0000 0.61540  0.80460  0.04920  Biso   1.000  N
  C114     1.0000 0.65780  0.82050  0.98580  Biso   1.000  C
  H129     1.0000 0.62970  0.85570  0.95740  Biso   1.000  H
  C115     1.0000 0.51550  0.84270  0.08550  Biso   1.000  C
  H130     1.0000 0.47610  0.87200  0.05070  Biso   1.000  H
  H131     1.0000 0.45180  0.81080  0.09940  Biso   1.000  H
  C116     1.0000 0.54730  0.88420  0.14810  Biso   1.000  C
  H132     1.0000 0.60390  0.85870  0.17870  Biso   1.000  H
  H133     1.0000 0.59310  0.92340  0.13260  Biso   1.000  H
  C117     1.0000 0.43630  0.90750  0.19130  Biso   1.000  C
  H134     1.0000 0.45330  0.95300  0.20690  Biso   1.000  H
  H135     1.0000 0.36200  0.90900  0.16060  Biso   1.000  H
  C118     1.0000 0.57860  0.79380  0.30580  Biso   1.000  C
  H136     1.0000 0.54850  0.75360  0.28740  Biso   1.000  H
  C119     1.0000 0.59230  0.89990  0.33010  Biso   1.000  C
  H137     1.0000 0.57550  0.94560  0.33260  Biso   1.000  H
  C120     1.0000 0.69230  0.86740  0.35840  Biso   1.000  C
  H138     1.0000 0.75760  0.88760  0.38410  Biso   1.000  H
  N21      1.0000 0.17670  0.93683  0.78230  Biso   1.000  N
  N22      1.0000 0.03170  0.01260  0.75970  Biso   1.000  N
  N23      1.0000 0.88240  0.25020  0.85280  Biso   1.000  N
  N24      1.0000 0.75040  0.32140  0.80400  Biso   1.000  N
  N25      1.0000 0.52030  0.85210  0.29670  Biso   1.000  N
  N26      1.0000 0.68390  0.79930  0.34390  Biso   1.000  N
  O21      1.0000 0.28270  0.80208  0.83914  Biso   1.000  O
  O22      1.0000 0.32440  0.83715  0.94770  Biso   1.000  O
  O23      1.0000 0.93940  0.69340  0.89580  Biso   1.000  O
  O24      1.0000 0.02810  0.78997  0.91470  Biso   1.000  O
  O25      1.0000 0.48380  0.34346  0.75580  Biso   1.000  O
  O26      1.0000 0.55600  0.44087  0.79128  Biso   1.000  O
  O27      1.0000 0.25780  0.35924  0.67280  Biso   1.000  O
  O28      1.0000 0.14360  0.29263  0.73440  Biso   1.000  O
  O29      1.0000 0.36900  0.49025  0.03303  Biso   1.000  O
  O30      1.0000 0.13540  0.49630  0.03661  Biso   1.000  O
  H139     1.0000 0.00970  0.08560  0.68820  Biso   1.000  H
  H140     1.0000 0.88360  0.04790  0.70390  Biso   1.000  H
  H141     1.0000 0.06640  0.23830  0.87590  Biso   1.000  H
  H142     1.0000 0.98270  0.18090  0.90570  Biso   1.000  H
  C121     1.0000 0.92230  0.12240  0.77550  Biso   1.000  C
  H143     1.0000 0.86410  0.15250  0.75120  Biso   1.000  H
  H144     1.0000 0.87870  0.10320  0.81510  Biso   1.000  H
  C122     1.0000 0.03620  0.16220  0.80280  Biso   1.000  C
  H145     1.0000 0.10170  0.13160  0.81900  Biso   1.000  H
  H146     1.0000 0.06980  0.18900  0.76490  Biso   1.000  H
  H147     1.0000 0.63990  0.72570  0.11030  Biso   1.000  H
  H148     1.0000 0.35490  0.82480  0.25630  Biso   1.000  H
  H149     1.0000 0.35820  0.89920  0.28090  Biso   1.000  H
  N27      1.0000 0.68290  0.82190  0.07570  Biso   1.000  N
  C123     1.0000 0.71770  0.83390  0.00840  Biso   1.000  C
  H150     1.0000 0.72140  0.87670  0.98930  Biso   1.000  H
  C124     1.0000 0.63050  0.87080  0.12850  Biso   1.000  C
  H151     1.0000 0.68230  0.87220  0.17130  Biso   1.000  H
  H152     1.0000 0.62370  0.91550  0.10890  Biso   1.000  H
  C125     1.0000 0.50110  0.84090  0.14200  Biso   1.000  C
  H153     1.0000 0.46230  0.82800  0.09730  Biso   1.000  H
  H154     1.0000 0.51180  0.80060  0.17010  Biso   1.000  H
  C126     1.0000 0.41300  0.88800  0.17960  Biso   1.000  C
  H155     1.0000 0.44460  0.93350  0.17750  Biso   1.000  H
  H156     1.0000 0.32960  0.88690  0.15730  Biso   1.000  H
  Ni7      1.0000 0.18465  0.26771  0.62702  Biso   1.000  Ni
  Ni8      1.0000 0.66794  0.37840  0.72588  Biso   1.000  Ni
  S4       1.0000 0.74999  0.00661  0.50031  Biso   1.000  S
  C127     1.0000 0.72640  0.22310  0.57100  Biso   1.000  C
  C128     1.0000 0.84390  0.19180  0.56800  Biso   1.000  C
  C129     1.0000 0.85100  0.12570  0.54620  Biso   1.000  C
  H157     1.0000 0.92900  0.10440  0.54350  Biso   1.000  H
  C130     1.0000 0.74100  0.09140  0.52840  Biso   1.000  C
  C131     1.0000 0.62510  0.12170  0.53110  Biso   1.000  C
  H158     1.0000 0.55200  0.09790  0.51970  Biso   1.000  H
  C132     1.0000 0.61830  0.18760  0.55090  Biso   1.000  C
  H159     1.0000 0.54020  0.20890  0.55080  Biso   1.000  H
  C133     1.0000 0.75970  0.96120  0.57970  Biso   1.000  C
  C134     1.0000 0.87630  0.93620  0.60460  Biso   1.000  C
  H160     1.0000 0.95010  0.94440  0.58020  Biso   1.000  H
  C135     1.0000 0.87850  0.89940  0.66560  Biso   1.000  C
  H161     1.0000 0.95560  0.88250  0.68180  Biso   1.000  H
  C136     1.0000 0.77170  0.88610  0.70460  Biso   1.000  C
  C137     1.0000 0.65580  0.91240  0.68000  Biso   1.000  C
  C138     1.0000 0.65070  0.94980  0.61760  Biso   1.000  C
  H162     1.0000 0.57390  0.96710  0.60140  Biso   1.000  H
  C139     1.0000 0.70640  0.29390  0.59680  Biso   1.000  C
  C140     1.0000 0.96570  0.22830  0.58670  Biso   1.000  C
  C141     1.0000 0.53140  0.89850  0.71310  Biso   1.000  C
  C142     1.0000 0.78820  0.84400  0.77030  Biso   1.000  C
  C143     1.0000 0.85880  0.48610  0.75920  Biso   1.000  C
  H163     1.0000 0.81280  0.50090  0.79750  Biso   1.000  H
  C144     1.0000 0.91880  0.43030  0.67000  Biso   1.000  C
  H164     1.0000 0.92170  0.39860  0.63420  Biso   1.000  H
  C145     1.0000 0.00630  0.47660  0.68350  Biso   1.000  C
  H165     1.0000 0.08000  0.48330  0.65860  Biso   1.000  H
  C146     1.0000 0.04040  0.56670  0.77450  Biso   1.000  C
  H166     1.0000 0.02270  0.56720  0.82440  Biso   1.000  H
  H167     1.0000 0.13000  0.55830  0.76950  Biso   1.000  H
  C147     1.0000 0.00370  0.70870  0.63530  Biso   1.000  C
  H168     1.0000 0.93310  0.72830  0.65970  Biso   1.000  H
  H169     1.0000 0.98260  0.70750  0.58540  Biso   1.000  H
  C148     1.0000 0.00690  0.63590  0.74210  Biso   1.000  C
  H170     1.0000 0.05930  0.67000  0.76430  Biso   1.000  H
  H171     1.0000 0.91940  0.64630  0.75160  Biso   1.000  H
  C149     1.0000 0.02630  0.63730  0.66220  Biso   1.000  C
  H172     1.0000 0.11160  0.62330  0.65180  Biso   1.000  H
  H173     1.0000 0.96780  0.60670  0.63890  Biso   1.000  H
  C150     1.0000 0.14220  0.78910  0.70370  Biso   1.000  C
  H174     1.0000 0.09070  0.79270  0.74260  Biso   1.000  H
  C151     1.0000 0.21660  0.75590  0.60230  Biso   1.000  C
  H175     1.0000 0.22690  0.73320  0.55990  Biso   1.000  H
  C152     1.0000 0.29600  0.80110  0.63210  Biso   1.000  C
  H176     1.0000 0.37060  0.81620  0.61250  Biso   1.000  H
  N28      1.0000 0.25310  0.27720  0.52910  Biso   1.000  N
  C153     1.0000 0.25550  0.23010  0.47800  Biso   1.000  C
  H177     1.0000 0.21740  0.18820  0.48080  Biso   1.000  H
  C154     1.0000 0.32020  0.25210  0.42290  Biso   1.000  C
  H178     1.0000 0.32080  0.23560  0.37710  Biso   1.000  H
  C155     1.0000 0.59480  0.36530  0.24410  Biso   1.000  C
  H179     1.0000 0.63300  0.32340  0.25900  Biso   1.000  H
  H180     1.0000 0.65470  0.38900  0.21530  Biso   1.000  H
  N29      1.0000 0.38460  0.30460  0.45080  Biso   1.000  N
  C156     1.0000 0.34220  0.32050  0.51420  Biso   1.000  C
  H181     1.0000 0.37030  0.35570  0.54260  Biso   1.000  H
  C157     1.0000 0.48450  0.34270  0.41450  Biso   1.000  C
  H182     1.0000 0.52390  0.37200  0.44930  Biso   1.000  H
  H183     1.0000 0.54820  0.31080  0.40060  Biso   1.000  H
  C158     1.0000 0.45270  0.38420  0.35190  Biso   1.000  C
  H184     1.0000 0.39610  0.35870  0.32130  Biso   1.000  H
  H185     1.0000 0.40690  0.42340  0.36740  Biso   1.000  H
  C159     1.0000 0.56370  0.40750  0.30870  Biso   1.000  C
  H186     1.0000 0.54670  0.45300  0.29310  Biso   1.000  H
  H187     1.0000 0.63800  0.40900  0.33940  Biso   1.000  H
  C160     1.0000 0.42140  0.29380  0.19420  Biso   1.000  C
  H188     1.0000 0.45150  0.25360  0.21260  Biso   1.000  H
  C161     1.0000 0.40770  0.39990  0.16990  Biso   1.000  C
  H189     1.0000 0.42450  0.44560  0.16740  Biso   1.000  H
  C162     1.0000 0.30770  0.36740  0.14160  Biso   1.000  C
  H190     1.0000 0.24240  0.38760  0.11590  Biso   1.000  H
  N30      1.0000 0.82330  0.43683  0.71770  Biso   1.000  N
  N31      1.0000 0.96830  0.51260  0.74030  Biso   1.000  N
  N32      1.0000 0.11760  0.75020  0.64720  Biso   1.000  N
  N33      1.0000 0.24960  0.82140  0.69600  Biso   1.000  N
  N34      1.0000 0.47970  0.35210  0.20330  Biso   1.000  N
  N35      1.0000 0.31610  0.29930  0.15610  Biso   1.000  N
  O31      1.0000 0.71730  0.30208  0.66086  Biso   1.000  O
  O32      1.0000 0.67560  0.33715  0.55230  Biso   1.000  O
  O33      1.0000 0.06060  0.19340  0.60420  Biso   1.000  O
  O34      1.0000 0.97190  0.28997  0.58530  Biso   1.000  O
  O35      1.0000 0.51620  0.84346  0.74420  Biso   1.000  O
  O36      1.0000 0.44400  0.94087  0.70872  Biso   1.000  O
  O37      1.0000 0.74220  0.85924  0.82720  Biso   1.000  O
  O38      1.0000 0.85640  0.79263  0.76560  Biso   1.000  O
  O39      1.0000 0.63100  0.99025  0.46697  Biso   1.000  O
  O40      1.0000 0.86460  0.99630  0.46339  Biso   1.000  O
  H191     1.0000 0.99030  0.58560  0.81180  Biso   1.000  H
  H192     1.0000 0.11640  0.54790  0.79610  Biso   1.000  H
  H193     1.0000 0.93360  0.73830  0.62410  Biso   1.000  H
  H194     1.0000 0.01730  0.68090  0.59430  Biso   1.000  H
  C163     1.0000 0.07770  0.62240  0.72450  Biso   1.000  C
  H195     1.0000 0.13590  0.65250  0.74880  Biso   1.000  H
  H196     1.0000 0.12130  0.60320  0.68490  Biso   1.000  H
  C164     1.0000 0.96380  0.66220  0.69720  Biso   1.000  C
  H197     1.0000 0.89830  0.63160  0.68100  Biso   1.000  H
  H198     1.0000 0.93020  0.68900  0.73510  Biso   1.000  H
  H199     1.0000 0.36010  0.22570  0.38970  Biso   1.000  H
  H200     1.0000 0.64510  0.32480  0.24370  Biso   1.000  H
  H201     1.0000 0.64180  0.39920  0.21910  Biso   1.000  H
  N36      1.0000 0.31710  0.32190  0.42430  Biso   1.000  N
  C165     1.0000 0.28230  0.33390  0.49160  Biso   1.000  C
  H202     1.0000 0.27860  0.37670  0.51070  Biso   1.000  H
  C166     1.0000 0.36950  0.37080  0.37150  Biso   1.000  C
  H203     1.0000 0.31770  0.37220  0.32870  Biso   1.000  H
  H204     1.0000 0.37630  0.41550  0.39110  Biso   1.000  H
  C167     1.0000 0.49890  0.34090  0.35800  Biso   1.000  C
  H205     1.0000 0.53770  0.32800  0.40270  Biso   1.000  H
  H206     1.0000 0.48820  0.30060  0.32990  Biso   1.000  H
  C168     1.0000 0.58700  0.38800  0.32040  Biso   1.000  C
  H207     1.0000 0.55540  0.43350  0.32250  Biso   1.000  H
  H208     1.0000 0.67040  0.38690  0.34270  Biso   1.000  H
