data_image0
_cell_length_a       28.5893
_cell_length_b       41.9618
_cell_length_c       12.0642
_cell_angle_alpha    90
_cell_angle_beta     90
_cell_angle_gamma    90

_symmetry_space_group_name_H-M    "P 1"
_symmetry_int_tables_number       1

loop_
  _symmetry_equiv_pos_as_xyz
  'x, y, z'

loop_
  _atom_site_label
  _atom_site_occupancy
  _atom_site_fract_x
  _atom_site_fract_y
  _atom_site_fract_z
  _atom_site_thermal_displace_type
  _atom_site_B_iso_or_equiv
  _atom_site_type_symbol
  Cd1      1.0000 0.25318  0.17596  0.26386  Biso   1.000  Cd
  N1       1.0000 0.19192  0.20297  0.17270  Biso   1.000  N
  N2       1.0000 0.19700  0.14527  0.35770  Biso   1.000  N
  O1       1.0000 0.25363  0.13621  0.12600  Biso   1.000  O
  N3       1.0000 0.31102  0.14672  0.35930  Biso   1.000  N
  N4       1.0000 0.30996  0.20338  0.16050  Biso   1.000  N
  C1       1.0000 0.19272  0.23414  0.16190  Biso   1.000  C
  C2       1.0000 0.15753  0.18800  0.12200  Biso   1.000  C
  C3       1.0000 0.19802  0.11356  0.35960  Biso   1.000  C
  C4       1.0000 0.16274  0.15896  0.41540  Biso   1.000  C
  H1       1.0000 0.23770  0.11770  0.15320  Biso   1.000  H
  H2       1.0000 0.21590  0.24540  0.19930  Biso   1.000  H
  C5       1.0000 0.16136  0.25123  0.09860  Biso   1.000  C
  C6       1.0000 0.12431  0.20314  0.05620  Biso   1.000  C
  H3       1.0000 0.15530  0.16600  0.13070  Biso   1.000  H
  H4       1.0000 0.22150  0.10320  0.32020  Biso   1.000  H
  C7       1.0000 0.16573  0.09492  0.41750  Biso   1.000  C
  C8       1.0000 0.13029  0.14263  0.47670  Biso   1.000  C
  H5       1.0000 0.16070  0.18110  0.41400  Biso   1.000  H
  H6       1.0000 0.16400  0.27330  0.09440  Biso   1.000  H
  C9       1.0000 0.12614  0.23599  0.04140  Biso   1.000  C
  H7       1.0000 0.10090  0.19130  0.02220  Biso   1.000  H
  H8       1.0000 0.16760  0.07280  0.41460  Biso   1.000  H
  C10      1.0000 0.13100  0.10940  0.47900  Biso   1.000  C
  H9       1.0000 0.10780  0.15370  0.51680  Biso   1.000  H
  C11      1.0000 0.09223  0.25296  0.97050  Biso   1.000  C
  C12      1.0000 0.09638  0.09134  0.54450  Biso   1.000  C
  C13      1.0000 0.10020  0.28348  0.93370  Biso   1.000  C
  C14      1.0000 0.05169  0.23883  0.93290  Biso   1.000  C
  C15      1.0000 0.10532  0.06082  0.58320  Biso   1.000  C
  C16      1.0000 0.05345  0.10416  0.57160  Biso   1.000  C
  H10      1.0000 0.12690  0.29420  0.95720  Biso   1.000  H
  C17      1.0000 0.06979  0.29855  0.86330  Biso   1.000  C
  C18      1.0000 0.02088  0.25407  0.86370  Biso   1.000  C
  H11      1.0000 0.04500  0.21810  0.95540  Biso   1.000  H
  H12      1.0000 0.13330  0.05090  0.56440  Biso   1.000  H
  C19      1.0000 0.07352  0.04487  0.64890  Biso   1.000  C
  C20      1.0000 0.02131  0.08864  0.63590  Biso   1.000  C
  H13      1.0000 0.04600  0.12430  0.54480  Biso   1.000  H
  H14      1.0000 0.07640  0.31930  0.84120  Biso   1.000  H
  C21      1.0000 0.02999  0.28412  0.82420  Biso   1.000  C
  H15      1.0000 0.99330  0.24390  0.84320  Biso   1.000  H
  H16      1.0000 0.08040  0.02440  0.67310  Biso   1.000  H
  C22      1.0000 0.03162  0.05882  0.67930  Biso   1.000  C
  H17      1.0000 0.99250  0.09810  0.65060  Biso   1.000  H
  C23      1.0000 0.02086  0.35038  0.66480  Biso   1.000  C
  C24      1.0000 0.98092  0.99156  0.66360  Biso   1.000  C
  H18      1.0000 0.03500  0.33930  0.60690  Biso   1.000  H
  C25      1.0000 0.02091  0.38369  0.66440  Biso   1.000  C
  H19      1.0000 0.96810  0.00260  0.60410  Biso   1.000  H
  C26      1.0000 0.98033  0.95873  0.66340  Biso   1.000  C
  H20      1.0000 0.03510  0.39460  0.60630  Biso   1.000  H
  H21      1.0000 0.96660  0.94780  0.60470  Biso   1.000  H
  C27      1.0000 0.03682  0.45328  0.70560  Biso   1.000  C
  C28      1.0000 0.95901  0.88903  0.73620  Biso   1.000  C
  H22      1.0000 0.06200  0.44240  0.67490  Biso   1.000  H
  C29      1.0000 0.03718  0.48614  0.70570  Biso   1.000  C
  H23      1.0000 0.93100  0.89990  0.72630  Biso   1.000  H
  C30      1.0000 0.95872  0.85647  0.73690  Biso   1.000  C
  H24      1.0000 0.06260  0.49690  0.67570  Biso   1.000  H
  H25      1.0000 0.93060  0.84560  0.72850  Biso   1.000  H
  C31      1.0000 0.96901  0.55469  0.81850  Biso   1.000  C
  C32      1.0000 0.96869  0.78860  0.67960  Biso   1.000  C
  C33      1.0000 0.94107  0.57740  0.77150  Biso   1.000  C
  C34      1.0000 0.96653  0.55044  0.92960  Biso   1.000  C
  C35      1.0000 0.96025  0.79848  0.57170  Biso   1.000  C
  C36      1.0000 0.94598  0.76174  0.71820  Biso   1.000  C
  H26      1.0000 0.94250  0.58090  0.69550  Biso   1.000  H
  C37      1.0000 0.91078  0.59529  0.83540  Biso   1.000  C
  C38      1.0000 0.93666  0.56883  0.99310  Biso   1.000  C
  H27      1.0000 0.98510  0.53500  0.96340  Biso   1.000  H
  H28      1.0000 0.97530  0.81650  0.54460  Biso   1.000  H
  C39      1.0000 0.92998  0.78206  0.50450  Biso   1.000  C
  C40      1.0000 0.91551  0.74545  0.65020  Biso   1.000  C
  H29      1.0000 0.95130  0.75470  0.79010  Biso   1.000  H
  H30      1.0000 0.89190  0.61040  0.80110  Biso   1.000  H
  C41      1.0000 0.90782  0.59138  0.94670  Biso   1.000  C
  H31      1.0000 0.93610  0.56580  0.06940  Biso   1.000  H
  H32      1.0000 0.92490  0.78910  0.43240  Biso   1.000  H
  C42      1.0000 0.90680  0.75504  0.54310  Biso   1.000  C
  H33      1.0000 0.90040  0.72750  0.67750  Biso   1.000  H
  C43      1.0000 0.87512  0.61062  0.01430  Biso   1.000  C
  C44      1.0000 0.87381  0.73693  0.47060  Biso   1.000  C
  C45      1.0000 0.83885  0.62682  0.96870  Biso   1.000  C
  C46      1.0000 0.87837  0.61367  0.12680  Biso   1.000  C
  C47      1.0000 0.85570  0.75040  0.37580  Biso   1.000  C
  C48      1.0000 0.86620  0.70530  0.48460  Biso   1.000  C
  H34      1.0000 0.83430  0.62590  0.89250  Biso   1.000  H
  C49      1.0000 0.80847  0.64466  0.03310  Biso   1.000  C
  C50      1.0000 0.84614  0.63165  0.18550  Biso   1.000  C
  H35      1.0000 0.90250  0.60350  0.16450  Biso   1.000  H
  H36      1.0000 0.86490  0.77080  0.35470  Biso   1.000  H
  C51      1.0000 0.82400  0.73390  0.31240  Biso   1.000  C
  C52      1.0000 0.83350  0.69020  0.41760  Biso   1.000  C
  H37      1.0000 0.88250  0.69390  0.53810  Biso   1.000  H
  H38      1.0000 0.78480  0.65590  0.99740  Biso   1.000  H
  H39      1.0000 0.84980  0.63310  0.26200  Biso   1.000  H
  H40      1.0000 0.81170  0.74350  0.24940  Biso   1.000  H
  H41      1.0000 0.82820  0.66870  0.43050  Biso   1.000  H
  C53      1.0000 0.87620  0.73540  0.36180  Biso   1.000  C
  H42      1.0000 0.90040  0.74570  0.32480  Biso   1.000  H
  C54      1.0000 0.84280  0.71850  0.30140  Biso   1.000  C
  H43      1.0000 0.84580  0.71880  0.22460  Biso   1.000  H
  C55      1.0000 0.80500  0.70430  0.45510  Biso   1.000  C
  H44      1.0000 0.77970  0.69400  0.48750  Biso   1.000  H
  C56      1.0000 0.83600  0.71980  0.52150  Biso   1.000  C
  H45      1.0000 0.83280  0.71920  0.59820  Biso   1.000  H
  Cd2      1.0000 0.74682  0.17596  0.23614  Biso   1.000  Cd
  N5       1.0000 0.80808  0.20297  0.32730  Biso   1.000  N
  N6       1.0000 0.80300  0.14527  0.14230  Biso   1.000  N
  O2       1.0000 0.74637  0.13621  0.37400  Biso   1.000  O
  N7       1.0000 0.68898  0.14672  0.14070  Biso   1.000  N
  N8       1.0000 0.69004  0.20338  0.33950  Biso   1.000  N
  C57      1.0000 0.80728  0.23414  0.33810  Biso   1.000  C
  C58      1.0000 0.84247  0.18800  0.37800  Biso   1.000  C
  C59      1.0000 0.80198  0.11356  0.14040  Biso   1.000  C
  C60      1.0000 0.83726  0.15896  0.08460  Biso   1.000  C
  H46      1.0000 0.76230  0.11770  0.34680  Biso   1.000  H
  H47      1.0000 0.78410  0.24540  0.30070  Biso   1.000  H
  C61      1.0000 0.83864  0.25123  0.40140  Biso   1.000  C
  C62      1.0000 0.87569  0.20314  0.44380  Biso   1.000  C
  H48      1.0000 0.84470  0.16600  0.36930  Biso   1.000  H
  H49      1.0000 0.77850  0.10320  0.17980  Biso   1.000  H
  C63      1.0000 0.83427  0.09492  0.08250  Biso   1.000  C
  C64      1.0000 0.86971  0.14263  0.02330  Biso   1.000  C
  H50      1.0000 0.83930  0.18110  0.08600  Biso   1.000  H
  H51      1.0000 0.83600  0.27330  0.40560  Biso   1.000  H
  C65      1.0000 0.87386  0.23599  0.45860  Biso   1.000  C
  H52      1.0000 0.89910  0.19130  0.47780  Biso   1.000  H
  H53      1.0000 0.83240  0.07280  0.08540  Biso   1.000  H
  C66      1.0000 0.86900  0.10940  0.02100  Biso   1.000  C
  H54      1.0000 0.89220  0.15370  0.98320  Biso   1.000  H
  C67      1.0000 0.90777  0.25296  0.52950  Biso   1.000  C
  C68      1.0000 0.90362  0.09134  0.95550  Biso   1.000  C
  C69      1.0000 0.89980  0.28348  0.56630  Biso   1.000  C
  C70      1.0000 0.94831  0.23883  0.56710  Biso   1.000  C
  C71      1.0000 0.89468  0.06082  0.91680  Biso   1.000  C
  C72      1.0000 0.94655  0.10416  0.92840  Biso   1.000  C
  H55      1.0000 0.87310  0.29420  0.54280  Biso   1.000  H
  C73      1.0000 0.93021  0.29855  0.63670  Biso   1.000  C
  C74      1.0000 0.97912  0.25407  0.63630  Biso   1.000  C
  H56      1.0000 0.95500  0.21810  0.54460  Biso   1.000  H
  H57      1.0000 0.86670  0.05090  0.93560  Biso   1.000  H
  C75      1.0000 0.92648  0.04487  0.85110  Biso   1.000  C
  C76      1.0000 0.97869  0.08864  0.86410  Biso   1.000  C
  H58      1.0000 0.95400  0.12430  0.95520  Biso   1.000  H
  H59      1.0000 0.92360  0.31930  0.65880  Biso   1.000  H
  C77      1.0000 0.97001  0.28412  0.67580  Biso   1.000  C
  H60      1.0000 0.00670  0.24390  0.65680  Biso   1.000  H
  H61      1.0000 0.91960  0.02440  0.82690  Biso   1.000  H
  C78      1.0000 0.96838  0.05882  0.82070  Biso   1.000  C
  H62      1.0000 0.00750  0.09810  0.84940  Biso   1.000  H
  C79      1.0000 0.97914  0.35038  0.83520  Biso   1.000  C
  C80      1.0000 0.01908  0.99156  0.83640  Biso   1.000  C
  H63      1.0000 0.96500  0.33930  0.89310  Biso   1.000  H
  C81      1.0000 0.97909  0.38369  0.83560  Biso   1.000  C
  H64      1.0000 0.03190  0.00260  0.89590  Biso   1.000  H
  C82      1.0000 0.01967  0.95873  0.83660  Biso   1.000  C
  H65      1.0000 0.96490  0.39460  0.89370  Biso   1.000  H
  H66      1.0000 0.03340  0.94780  0.89530  Biso   1.000  H
  C83      1.0000 0.96318  0.45328  0.79440  Biso   1.000  C
  C84      1.0000 0.04099  0.88903  0.76380  Biso   1.000  C
  H67      1.0000 0.93800  0.44240  0.82510  Biso   1.000  H
  C85      1.0000 0.96282  0.48614  0.79430  Biso   1.000  C
  H68      1.0000 0.06900  0.89990  0.77370  Biso   1.000  H
  C86      1.0000 0.04128  0.85647  0.76310  Biso   1.000  C
  H69      1.0000 0.93740  0.49690  0.82430  Biso   1.000  H
  H70      1.0000 0.06940  0.84560  0.77150  Biso   1.000  H
  C87      1.0000 0.03099  0.55469  0.68150  Biso   1.000  C
  C88      1.0000 0.03131  0.78860  0.82040  Biso   1.000  C
  C89      1.0000 0.05893  0.57740  0.72850  Biso   1.000  C
  C90      1.0000 0.03347  0.55044  0.57040  Biso   1.000  C
  C91      1.0000 0.03975  0.79848  0.92830  Biso   1.000  C
  C92      1.0000 0.05402  0.76174  0.78180  Biso   1.000  C
  H71      1.0000 0.05750  0.58090  0.80450  Biso   1.000  H
  C93      1.0000 0.08922  0.59529  0.66460  Biso   1.000  C
  C94      1.0000 0.06334  0.56883  0.50690  Biso   1.000  C
  H72      1.0000 0.01490  0.53500  0.53660  Biso   1.000  H
  H73      1.0000 0.02470  0.81650  0.95540  Biso   1.000  H
  C95      1.0000 0.07002  0.78206  0.99550  Biso   1.000  C
  C96      1.0000 0.08449  0.74545  0.84980  Biso   1.000  C
  H74      1.0000 0.04870  0.75470  0.70990  Biso   1.000  H
  H75      1.0000 0.10810  0.61040  0.69890  Biso   1.000  H
  C97      1.0000 0.09218  0.59138  0.55330  Biso   1.000  C
  H76      1.0000 0.06390  0.56580  0.43060  Biso   1.000  H
  H77      1.0000 0.07510  0.78910  0.06760  Biso   1.000  H
  C98      1.0000 0.09320  0.75504  0.95690  Biso   1.000  C
  H78      1.0000 0.09960  0.72750  0.82250  Biso   1.000  H
  C99      1.0000 0.12488  0.61062  0.48570  Biso   1.000  C
  C100     1.0000 0.12619  0.73693  0.02940  Biso   1.000  C
  C101     1.0000 0.16115  0.62682  0.53130  Biso   1.000  C
  C102     1.0000 0.12163  0.61367  0.37320  Biso   1.000  C
  C103     1.0000 0.14430  0.75040  0.12420  Biso   1.000  C
  C104     1.0000 0.13380  0.70530  0.01540  Biso   1.000  C
  H79      1.0000 0.16570  0.62590  0.60750  Biso   1.000  H
  C105     1.0000 0.19153  0.64466  0.46690  Biso   1.000  C
  C106     1.0000 0.15386  0.63165  0.31450  Biso   1.000  C
  H80      1.0000 0.09750  0.60350  0.33550  Biso   1.000  H
  H81      1.0000 0.13510  0.77080  0.14530  Biso   1.000  H
  C107     1.0000 0.17600  0.73390  0.18760  Biso   1.000  C
  C108     1.0000 0.16650  0.69020  0.08240  Biso   1.000  C
  H82      1.0000 0.11750  0.69390  0.96190  Biso   1.000  H
  H83      1.0000 0.21520  0.65590  0.50260  Biso   1.000  H
  H84      1.0000 0.15020  0.63310  0.23800  Biso   1.000  H
  H85      1.0000 0.18830  0.74350  0.25060  Biso   1.000  H
  H86      1.0000 0.17180  0.66870  0.06950  Biso   1.000  H
  C109     1.0000 0.12380  0.73540  0.13820  Biso   1.000  C
  H87      1.0000 0.09960  0.74570  0.17520  Biso   1.000  H
  C110     1.0000 0.15720  0.71850  0.19860  Biso   1.000  C
  H88      1.0000 0.15420  0.71880  0.27540  Biso   1.000  H
  C111     1.0000 0.19500  0.70430  0.04490  Biso   1.000  C
  H89      1.0000 0.22030  0.69400  0.01250  Biso   1.000  H
  C112     1.0000 0.16400  0.71980  0.97850  Biso   1.000  C
  H90      1.0000 0.16720  0.71920  0.90180  Biso   1.000  H
  Cd3      1.0000 0.75318  0.67596  0.23614  Biso   1.000  Cd
  N9       1.0000 0.69192  0.70297  0.32730  Biso   1.000  N
  N10      1.0000 0.69700  0.64527  0.14230  Biso   1.000  N
  O3       1.0000 0.75363  0.63621  0.37400  Biso   1.000  O
  N11      1.0000 0.81102  0.64672  0.14070  Biso   1.000  N
  N12      1.0000 0.80996  0.70338  0.33950  Biso   1.000  N
  C113     1.0000 0.69272  0.73414  0.33810  Biso   1.000  C
  C114     1.0000 0.65753  0.68800  0.37800  Biso   1.000  C
  C115     1.0000 0.69802  0.61356  0.14040  Biso   1.000  C
  C116     1.0000 0.66274  0.65896  0.08460  Biso   1.000  C
  H91      1.0000 0.73770  0.61770  0.34680  Biso   1.000  H
  H92      1.0000 0.71590  0.74540  0.30070  Biso   1.000  H
  C117     1.0000 0.66136  0.75123  0.40140  Biso   1.000  C
  C118     1.0000 0.62431  0.70314  0.44380  Biso   1.000  C
  H93      1.0000 0.65530  0.66600  0.36930  Biso   1.000  H
  H94      1.0000 0.72150  0.60320  0.17980  Biso   1.000  H
  C119     1.0000 0.66573  0.59492  0.08250  Biso   1.000  C
  C120     1.0000 0.63029  0.64263  0.02330  Biso   1.000  C
  H95      1.0000 0.66070  0.68110  0.08600  Biso   1.000  H
  H96      1.0000 0.66400  0.77330  0.40560  Biso   1.000  H
  C121     1.0000 0.62614  0.73599  0.45860  Biso   1.000  C
  H97      1.0000 0.60090  0.69130  0.47780  Biso   1.000  H
  H98      1.0000 0.66760  0.57280  0.08540  Biso   1.000  H
  C122     1.0000 0.63100  0.60940  0.02100  Biso   1.000  C
  H99      1.0000 0.60780  0.65370  0.98320  Biso   1.000  H
  C123     1.0000 0.59223  0.75296  0.52950  Biso   1.000  C
  C124     1.0000 0.59638  0.59134  0.95550  Biso   1.000  C
  C125     1.0000 0.60020  0.78348  0.56630  Biso   1.000  C
  C126     1.0000 0.55169  0.73883  0.56710  Biso   1.000  C
  C127     1.0000 0.60532  0.56082  0.91680  Biso   1.000  C
  C128     1.0000 0.55345  0.60416  0.92840  Biso   1.000  C
  H100     1.0000 0.62690  0.79420  0.54280  Biso   1.000  H
  C129     1.0000 0.56979  0.79855  0.63670  Biso   1.000  C
  C130     1.0000 0.52088  0.75407  0.63630  Biso   1.000  C
  H101     1.0000 0.54500  0.71810  0.54460  Biso   1.000  H
  H102     1.0000 0.63330  0.55090  0.93560  Biso   1.000  H
  C131     1.0000 0.57352  0.54487  0.85110  Biso   1.000  C
  C132     1.0000 0.52131  0.58864  0.86410  Biso   1.000  C
  H103     1.0000 0.54600  0.62430  0.95520  Biso   1.000  H
  H104     1.0000 0.57640  0.81930  0.65880  Biso   1.000  H
  C133     1.0000 0.52999  0.78412  0.67580  Biso   1.000  C
  H105     1.0000 0.49330  0.74390  0.65680  Biso   1.000  H
  H106     1.0000 0.58040  0.52440  0.82690  Biso   1.000  H
  C134     1.0000 0.53162  0.55882  0.82070  Biso   1.000  C
  H107     1.0000 0.49250  0.59810  0.84940  Biso   1.000  H
  C135     1.0000 0.52086  0.85038  0.83520  Biso   1.000  C
  C136     1.0000 0.48092  0.49156  0.83640  Biso   1.000  C
  H108     1.0000 0.53500  0.83930  0.89310  Biso   1.000  H
  C137     1.0000 0.52091  0.88369  0.83560  Biso   1.000  C
  H109     1.0000 0.46810  0.50260  0.89590  Biso   1.000  H
  C138     1.0000 0.48033  0.45873  0.83660  Biso   1.000  C
  H110     1.0000 0.53510  0.89460  0.89370  Biso   1.000  H
  H111     1.0000 0.46660  0.44780  0.89530  Biso   1.000  H
  C139     1.0000 0.53682  0.95328  0.79440  Biso   1.000  C
  C140     1.0000 0.45901  0.38903  0.76380  Biso   1.000  C
  H112     1.0000 0.56200  0.94240  0.82510  Biso   1.000  H
  C141     1.0000 0.53718  0.98614  0.79430  Biso   1.000  C
  H113     1.0000 0.43100  0.39990  0.77370  Biso   1.000  H
  C142     1.0000 0.45872  0.35647  0.76310  Biso   1.000  C
  H114     1.0000 0.56260  0.99690  0.82430  Biso   1.000  H
  H115     1.0000 0.43060  0.34560  0.77150  Biso   1.000  H
  C143     1.0000 0.46901  0.05469  0.68150  Biso   1.000  C
  C144     1.0000 0.46869  0.28860  0.82040  Biso   1.000  C
  C145     1.0000 0.44107  0.07740  0.72850  Biso   1.000  C
  C146     1.0000 0.46653  0.05044  0.57040  Biso   1.000  C
  C147     1.0000 0.46025  0.29848  0.92830  Biso   1.000  C
  C148     1.0000 0.44598  0.26174  0.78180  Biso   1.000  C
  H116     1.0000 0.44250  0.08090  0.80450  Biso   1.000  H
  C149     1.0000 0.41078  0.09529  0.66460  Biso   1.000  C
  C150     1.0000 0.43666  0.06883  0.50690  Biso   1.000  C
  H117     1.0000 0.48510  0.03500  0.53660  Biso   1.000  H
  H118     1.0000 0.47530  0.31650  0.95540  Biso   1.000  H
  C151     1.0000 0.42998  0.28206  0.99550  Biso   1.000  C
  C152     1.0000 0.41551  0.24545  0.84980  Biso   1.000  C
  H119     1.0000 0.45130  0.25470  0.70990  Biso   1.000  H
  H120     1.0000 0.39190  0.11040  0.69890  Biso   1.000  H
  C153     1.0000 0.40782  0.09138  0.55330  Biso   1.000  C
  H121     1.0000 0.43610  0.06580  0.43060  Biso   1.000  H
  H122     1.0000 0.42490  0.28910  0.06760  Biso   1.000  H
  C154     1.0000 0.40680  0.25504  0.95690  Biso   1.000  C
  H123     1.0000 0.40040  0.22750  0.82250  Biso   1.000  H
  C155     1.0000 0.37512  0.11062  0.48570  Biso   1.000  C
  C156     1.0000 0.37381  0.23693  0.02940  Biso   1.000  C
  C157     1.0000 0.33885  0.12682  0.53130  Biso   1.000  C
  C158     1.0000 0.37837  0.11367  0.37320  Biso   1.000  C
  C159     1.0000 0.35570  0.25040  0.12420  Biso   1.000  C
  C160     1.0000 0.36620  0.20530  0.01540  Biso   1.000  C
  H124     1.0000 0.33430  0.12590  0.60750  Biso   1.000  H
  C161     1.0000 0.30847  0.14466  0.46690  Biso   1.000  C
  C162     1.0000 0.34614  0.13165  0.31450  Biso   1.000  C
  H125     1.0000 0.40250  0.10350  0.33550  Biso   1.000  H
  H126     1.0000 0.36490  0.27080  0.14530  Biso   1.000  H
  C163     1.0000 0.32400  0.23390  0.18760  Biso   1.000  C
  C164     1.0000 0.33350  0.19020  0.08240  Biso   1.000  C
  H127     1.0000 0.38250  0.19390  0.96190  Biso   1.000  H
  H128     1.0000 0.28480  0.15590  0.50260  Biso   1.000  H
  H129     1.0000 0.34980  0.13310  0.23800  Biso   1.000  H
  H130     1.0000 0.31170  0.24350  0.25060  Biso   1.000  H
  H131     1.0000 0.32820  0.16870  0.06950  Biso   1.000  H
  C165     1.0000 0.37620  0.23540  0.13820  Biso   1.000  C
  H132     1.0000 0.40040  0.24570  0.17520  Biso   1.000  H
  C166     1.0000 0.34280  0.21850  0.19860  Biso   1.000  C
  H133     1.0000 0.34580  0.21880  0.27540  Biso   1.000  H
  C167     1.0000 0.30500  0.20430  0.04490  Biso   1.000  C
  H134     1.0000 0.27970  0.19400  0.01250  Biso   1.000  H
  C168     1.0000 0.33600  0.21980  0.97850  Biso   1.000  C
  H135     1.0000 0.33280  0.21920  0.90180  Biso   1.000  H
  Cd4      1.0000 0.24682  0.67596  0.26386  Biso   1.000  Cd
  N13      1.0000 0.30808  0.70297  0.17270  Biso   1.000  N
  N14      1.0000 0.30300  0.64527  0.35770  Biso   1.000  N
  O4       1.0000 0.24637  0.63621  0.12600  Biso   1.000  O
  N15      1.0000 0.18898  0.64672  0.35930  Biso   1.000  N
  N16      1.0000 0.19004  0.70338  0.16050  Biso   1.000  N
  C169     1.0000 0.30728  0.73414  0.16190  Biso   1.000  C
  C170     1.0000 0.34247  0.68800  0.12200  Biso   1.000  C
  C171     1.0000 0.30198  0.61356  0.35960  Biso   1.000  C
  C172     1.0000 0.33726  0.65896  0.41540  Biso   1.000  C
  H136     1.0000 0.26230  0.61770  0.15320  Biso   1.000  H
  H137     1.0000 0.28410  0.74540  0.19930  Biso   1.000  H
  C173     1.0000 0.33864  0.75123  0.09860  Biso   1.000  C
  C174     1.0000 0.37569  0.70314  0.05620  Biso   1.000  C
  H138     1.0000 0.34470  0.66600  0.13070  Biso   1.000  H
  H139     1.0000 0.27850  0.60320  0.32020  Biso   1.000  H
  C175     1.0000 0.33427  0.59492  0.41750  Biso   1.000  C
  C176     1.0000 0.36971  0.64263  0.47670  Biso   1.000  C
  H140     1.0000 0.33930  0.68110  0.41400  Biso   1.000  H
  H141     1.0000 0.33600  0.77330  0.09440  Biso   1.000  H
  C177     1.0000 0.37386  0.73599  0.04140  Biso   1.000  C
  H142     1.0000 0.39910  0.69130  0.02220  Biso   1.000  H
  H143     1.0000 0.33240  0.57280  0.41460  Biso   1.000  H
  C178     1.0000 0.36900  0.60940  0.47900  Biso   1.000  C
  H144     1.0000 0.39220  0.65370  0.51680  Biso   1.000  H
  C179     1.0000 0.40777  0.75296  0.97050  Biso   1.000  C
  C180     1.0000 0.40362  0.59134  0.54450  Biso   1.000  C
  C181     1.0000 0.39980  0.78348  0.93370  Biso   1.000  C
  C182     1.0000 0.44831  0.73883  0.93290  Biso   1.000  C
  C183     1.0000 0.39468  0.56082  0.58320  Biso   1.000  C
  C184     1.0000 0.44655  0.60416  0.57160  Biso   1.000  C
  H145     1.0000 0.37310  0.79420  0.95720  Biso   1.000  H
  C185     1.0000 0.43021  0.79855  0.86330  Biso   1.000  C
  C186     1.0000 0.47912  0.75407  0.86370  Biso   1.000  C
  H146     1.0000 0.45500  0.71810  0.95540  Biso   1.000  H
  H147     1.0000 0.36670  0.55090  0.56440  Biso   1.000  H
  C187     1.0000 0.42648  0.54487  0.64890  Biso   1.000  C
  C188     1.0000 0.47869  0.58864  0.63590  Biso   1.000  C
  H148     1.0000 0.45400  0.62430  0.54480  Biso   1.000  H
  H149     1.0000 0.42360  0.81930  0.84120  Biso   1.000  H
  C189     1.0000 0.47001  0.78412  0.82420  Biso   1.000  C
  H150     1.0000 0.50670  0.74390  0.84320  Biso   1.000  H
  H151     1.0000 0.41960  0.52440  0.67310  Biso   1.000  H
  C190     1.0000 0.46838  0.55882  0.67930  Biso   1.000  C
  H152     1.0000 0.50750  0.59810  0.65060  Biso   1.000  H
  C191     1.0000 0.47914  0.85038  0.66480  Biso   1.000  C
  C192     1.0000 0.51908  0.49156  0.66360  Biso   1.000  C
  H153     1.0000 0.46500  0.83930  0.60690  Biso   1.000  H
  C193     1.0000 0.47909  0.88369  0.66440  Biso   1.000  C
  H154     1.0000 0.53190  0.50260  0.60410  Biso   1.000  H
  C194     1.0000 0.51967  0.45873  0.66340  Biso   1.000  C
  H155     1.0000 0.46490  0.89460  0.60630  Biso   1.000  H
  H156     1.0000 0.53340  0.44780  0.60470  Biso   1.000  H
  C195     1.0000 0.46318  0.95328  0.70560  Biso   1.000  C
  C196     1.0000 0.54099  0.38903  0.73620  Biso   1.000  C
  H157     1.0000 0.43800  0.94240  0.67490  Biso   1.000  H
  C197     1.0000 0.46282  0.98614  0.70570  Biso   1.000  C
  H158     1.0000 0.56900  0.39990  0.72630  Biso   1.000  H
  C198     1.0000 0.54128  0.35647  0.73690  Biso   1.000  C
  H159     1.0000 0.43740  0.99690  0.67570  Biso   1.000  H
  H160     1.0000 0.56940  0.34560  0.72850  Biso   1.000  H
  C199     1.0000 0.53099  0.05469  0.81850  Biso   1.000  C
  C200     1.0000 0.53131  0.28860  0.67960  Biso   1.000  C
  C201     1.0000 0.55893  0.07740  0.77150  Biso   1.000  C
  C202     1.0000 0.53347  0.05044  0.92960  Biso   1.000  C
  C203     1.0000 0.53975  0.29848  0.57170  Biso   1.000  C
  C204     1.0000 0.55402  0.26174  0.71820  Biso   1.000  C
  H161     1.0000 0.55750  0.08090  0.69550  Biso   1.000  H
  C205     1.0000 0.58922  0.09529  0.83540  Biso   1.000  C
  C206     1.0000 0.56334  0.06883  0.99310  Biso   1.000  C
  H162     1.0000 0.51490  0.03500  0.96340  Biso   1.000  H
  H163     1.0000 0.52470  0.31650  0.54460  Biso   1.000  H
  C207     1.0000 0.57002  0.28206  0.50450  Biso   1.000  C
  C208     1.0000 0.58449  0.24545  0.65020  Biso   1.000  C
  H164     1.0000 0.54870  0.25470  0.79010  Biso   1.000  H
  H165     1.0000 0.60810  0.11040  0.80110  Biso   1.000  H
  C209     1.0000 0.59218  0.09138  0.94670  Biso   1.000  C
  H166     1.0000 0.56390  0.06580  0.06940  Biso   1.000  H
  H167     1.0000 0.57510  0.28910  0.43240  Biso   1.000  H
  C210     1.0000 0.59320  0.25504  0.54310  Biso   1.000  C
  H168     1.0000 0.59960  0.22750  0.67750  Biso   1.000  H
  C211     1.0000 0.62488  0.11062  0.01430  Biso   1.000  C
  C212     1.0000 0.62619  0.23693  0.47060  Biso   1.000  C
  C213     1.0000 0.66115  0.12682  0.96870  Biso   1.000  C
  C214     1.0000 0.62163  0.11367  0.12680  Biso   1.000  C
  C215     1.0000 0.64430  0.25040  0.37580  Biso   1.000  C
  C216     1.0000 0.63380  0.20530  0.48460  Biso   1.000  C
  H169     1.0000 0.66570  0.12590  0.89250  Biso   1.000  H
  C217     1.0000 0.69153  0.14466  0.03310  Biso   1.000  C
  C218     1.0000 0.65386  0.13165  0.18550  Biso   1.000  C
  H170     1.0000 0.59750  0.10350  0.16450  Biso   1.000  H
  H171     1.0000 0.63510  0.27080  0.35470  Biso   1.000  H
  C219     1.0000 0.67600  0.23390  0.31240  Biso   1.000  C
  C220     1.0000 0.66650  0.19020  0.41760  Biso   1.000  C
  H172     1.0000 0.61750  0.19390  0.53810  Biso   1.000  H
  H173     1.0000 0.71520  0.15590  0.99740  Biso   1.000  H
  H174     1.0000 0.65020  0.13310  0.26200  Biso   1.000  H
  H175     1.0000 0.68830  0.24350  0.24940  Biso   1.000  H
  H176     1.0000 0.67180  0.16870  0.43050  Biso   1.000  H
  C221     1.0000 0.62380  0.23540  0.36180  Biso   1.000  C
  H177     1.0000 0.59960  0.24570  0.32480  Biso   1.000  H
  C222     1.0000 0.65720  0.21850  0.30140  Biso   1.000  C
  H178     1.0000 0.65420  0.21880  0.22460  Biso   1.000  H
  C223     1.0000 0.69500  0.20430  0.45510  Biso   1.000  C
  H179     1.0000 0.72030  0.19400  0.48750  Biso   1.000  H
  C224     1.0000 0.66400  0.21980  0.52150  Biso   1.000  C
  H180     1.0000 0.66720  0.21920  0.59820  Biso   1.000  H
  N17      1.0000 0.00000  0.29967  0.75000  Biso   1.000  N
  C225     1.0000 0.00000  0.33371  0.75000  Biso   1.000  C
  C226     1.0000 0.00000  0.40082  0.75000  Biso   1.000  C
  C227     1.0000 0.00000  0.43605  0.75000  Biso   1.000  C
  C228     1.0000 0.00000  0.50353  0.75000  Biso   1.000  C
  N18      1.0000 0.00000  0.53675  0.75000  Biso   1.000  N
  N19      1.0000 0.50000  0.79967  0.75000  Biso   1.000  N
  C229     1.0000 0.50000  0.83371  0.75000  Biso   1.000  C
  C230     1.0000 0.50000  0.90082  0.75000  Biso   1.000  C
  C231     1.0000 0.50000  0.93605  0.75000  Biso   1.000  C
  C232     1.0000 0.50000  0.00353  0.75000  Biso   1.000  C
  N20      1.0000 0.50000  0.03675  0.75000  Biso   1.000  N
  N21      1.0000 0.00000  0.04254  0.75000  Biso   1.000  N
  C233     1.0000 0.00000  0.00815  0.75000  Biso   1.000  C
  C234     1.0000 0.00000  0.94213  0.75000  Biso   1.000  C
  C235     1.0000 0.00000  0.90638  0.75000  Biso   1.000  C
  C236     1.0000 0.00000  0.83944  0.75000  Biso   1.000  C
  N22      1.0000 0.00000  0.80585  0.75000  Biso   1.000  N
  N23      1.0000 0.50000  0.54254  0.75000  Biso   1.000  N
  C237     1.0000 0.50000  0.50815  0.75000  Biso   1.000  C
  C238     1.0000 0.50000  0.44213  0.75000  Biso   1.000  C
  C239     1.0000 0.50000  0.40638  0.75000  Biso   1.000  C
  C240     1.0000 0.50000  0.33944  0.75000  Biso   1.000  C
  N24      1.0000 0.50000  0.30585  0.75000  Biso   1.000  N
  Cd5      1.0000 0.24682  0.32404  0.76386  Biso   1.000  Cd
  N25      1.0000 0.30808  0.29703  0.67270  Biso   1.000  N
  N26      1.0000 0.30300  0.35473  0.85770  Biso   1.000  N
  O5       1.0000 0.24637  0.36379  0.62600  Biso   1.000  O
  N27      1.0000 0.18898  0.35328  0.85930  Biso   1.000  N
  N28      1.0000 0.19004  0.29662  0.66050  Biso   1.000  N
  C241     1.0000 0.30728  0.26586  0.66190  Biso   1.000  C
  C242     1.0000 0.34247  0.31200  0.62200  Biso   1.000  C
  C243     1.0000 0.30198  0.38644  0.85960  Biso   1.000  C
  C244     1.0000 0.33726  0.34104  0.91540  Biso   1.000  C
  H181     1.0000 0.26230  0.38230  0.65320  Biso   1.000  H
  H182     1.0000 0.28410  0.25460  0.69930  Biso   1.000  H
  C245     1.0000 0.33864  0.24877  0.59860  Biso   1.000  C
  C246     1.0000 0.37569  0.29686  0.55620  Biso   1.000  C
  H183     1.0000 0.34470  0.33400  0.63070  Biso   1.000  H
  H184     1.0000 0.27850  0.39680  0.82020  Biso   1.000  H
  C247     1.0000 0.33427  0.40508  0.91750  Biso   1.000  C
  C248     1.0000 0.36971  0.35737  0.97670  Biso   1.000  C
  H185     1.0000 0.33930  0.31890  0.91400  Biso   1.000  H
  H186     1.0000 0.33600  0.22670  0.59440  Biso   1.000  H
  C249     1.0000 0.37386  0.26401  0.54140  Biso   1.000  C
  H187     1.0000 0.39910  0.30870  0.52220  Biso   1.000  H
  H188     1.0000 0.33240  0.42720  0.91460  Biso   1.000  H
  C250     1.0000 0.36900  0.39060  0.97900  Biso   1.000  C
  H189     1.0000 0.39220  0.34630  0.01680  Biso   1.000  H
  C251     1.0000 0.40777  0.24704  0.47050  Biso   1.000  C
  C252     1.0000 0.40362  0.40866  0.04450  Biso   1.000  C
  C253     1.0000 0.39980  0.21652  0.43370  Biso   1.000  C
  C254     1.0000 0.44831  0.26117  0.43290  Biso   1.000  C
  C255     1.0000 0.39468  0.43918  0.08320  Biso   1.000  C
  C256     1.0000 0.44655  0.39584  0.07160  Biso   1.000  C
  H190     1.0000 0.37310  0.20580  0.45720  Biso   1.000  H
  C257     1.0000 0.43021  0.20145  0.36330  Biso   1.000  C
  C258     1.0000 0.47912  0.24593  0.36370  Biso   1.000  C
  H191     1.0000 0.45500  0.28190  0.45540  Biso   1.000  H
  H192     1.0000 0.36670  0.44910  0.06440  Biso   1.000  H
  C259     1.0000 0.42648  0.45513  0.14890  Biso   1.000  C
  C260     1.0000 0.47869  0.41136  0.13590  Biso   1.000  C
  H193     1.0000 0.45400  0.37570  0.04480  Biso   1.000  H
  H194     1.0000 0.42360  0.18070  0.34120  Biso   1.000  H
  C261     1.0000 0.47001  0.21588  0.32420  Biso   1.000  C
  H195     1.0000 0.50670  0.25610  0.34320  Biso   1.000  H
  H196     1.0000 0.41960  0.47560  0.17310  Biso   1.000  H
  C262     1.0000 0.46838  0.44118  0.17930  Biso   1.000  C
  H197     1.0000 0.50750  0.40190  0.15060  Biso   1.000  H
  C263     1.0000 0.47914  0.14962  0.16480  Biso   1.000  C
  C264     1.0000 0.51908  0.50844  0.16360  Biso   1.000  C
  H198     1.0000 0.46500  0.16070  0.10690  Biso   1.000  H
  C265     1.0000 0.47909  0.11631  0.16440  Biso   1.000  C
  H199     1.0000 0.53190  0.49740  0.10410  Biso   1.000  H
  C266     1.0000 0.51967  0.54127  0.16340  Biso   1.000  C
  H200     1.0000 0.46490  0.10540  0.10630  Biso   1.000  H
  H201     1.0000 0.53340  0.55220  0.10470  Biso   1.000  H
  C267     1.0000 0.46318  0.04672  0.20560  Biso   1.000  C
  C268     1.0000 0.54099  0.61097  0.23620  Biso   1.000  C
  H202     1.0000 0.43800  0.05760  0.17490  Biso   1.000  H
  C269     1.0000 0.46282  0.01386  0.20570  Biso   1.000  C
  H203     1.0000 0.56900  0.60010  0.22630  Biso   1.000  H
  C270     1.0000 0.54128  0.64353  0.23690  Biso   1.000  C
  H204     1.0000 0.43740  0.00310  0.17570  Biso   1.000  H
  H205     1.0000 0.56940  0.65440  0.22850  Biso   1.000  H
  C271     1.0000 0.53099  0.94531  0.31850  Biso   1.000  C
  C272     1.0000 0.53131  0.71140  0.17960  Biso   1.000  C
  C273     1.0000 0.55893  0.92260  0.27150  Biso   1.000  C
  C274     1.0000 0.53347  0.94956  0.42960  Biso   1.000  C
  C275     1.0000 0.53975  0.70152  0.07170  Biso   1.000  C
  C276     1.0000 0.55402  0.73826  0.21820  Biso   1.000  C
  H206     1.0000 0.55750  0.91910  0.19550  Biso   1.000  H
  C277     1.0000 0.58922  0.90471  0.33540  Biso   1.000  C
  C278     1.0000 0.56334  0.93117  0.49310  Biso   1.000  C
  H207     1.0000 0.51490  0.96500  0.46340  Biso   1.000  H
  H208     1.0000 0.52470  0.68350  0.04460  Biso   1.000  H
  C279     1.0000 0.57002  0.71794  0.00450  Biso   1.000  C
  C280     1.0000 0.58449  0.75455  0.15020  Biso   1.000  C
  H209     1.0000 0.54870  0.74530  0.29010  Biso   1.000  H
  H210     1.0000 0.60810  0.88960  0.30110  Biso   1.000  H
  C281     1.0000 0.59218  0.90862  0.44670  Biso   1.000  C
  H211     1.0000 0.56390  0.93420  0.56940  Biso   1.000  H
  H212     1.0000 0.57510  0.71090  0.93240  Biso   1.000  H
  C282     1.0000 0.59320  0.74496  0.04310  Biso   1.000  C
  H213     1.0000 0.59960  0.77250  0.17750  Biso   1.000  H
  C283     1.0000 0.62488  0.88938  0.51430  Biso   1.000  C
  C284     1.0000 0.62619  0.76307  0.97060  Biso   1.000  C
  C285     1.0000 0.66115  0.87318  0.46870  Biso   1.000  C
  C286     1.0000 0.62163  0.88633  0.62680  Biso   1.000  C
  C287     1.0000 0.64430  0.74960  0.87580  Biso   1.000  C
  C288     1.0000 0.63380  0.79470  0.98460  Biso   1.000  C
  H214     1.0000 0.66570  0.87410  0.39250  Biso   1.000  H
  C289     1.0000 0.69153  0.85534  0.53310  Biso   1.000  C
  C290     1.0000 0.65386  0.86835  0.68550  Biso   1.000  C
  H215     1.0000 0.59750  0.89650  0.66450  Biso   1.000  H
  H216     1.0000 0.63510  0.72920  0.85470  Biso   1.000  H
  C291     1.0000 0.67600  0.76610  0.81240  Biso   1.000  C
  C292     1.0000 0.66650  0.80980  0.91760  Biso   1.000  C
  H217     1.0000 0.61750  0.80610  0.03810  Biso   1.000  H
  H218     1.0000 0.71520  0.84410  0.49740  Biso   1.000  H
  H219     1.0000 0.65020  0.86690  0.76200  Biso   1.000  H
  H220     1.0000 0.68830  0.75650  0.74940  Biso   1.000  H
  H221     1.0000 0.67180  0.83130  0.93050  Biso   1.000  H
  C293     1.0000 0.62380  0.76460  0.86180  Biso   1.000  C
  H222     1.0000 0.59960  0.75430  0.82480  Biso   1.000  H
  C294     1.0000 0.65720  0.78150  0.80140  Biso   1.000  C
  H223     1.0000 0.65420  0.78120  0.72460  Biso   1.000  H
  C295     1.0000 0.69500  0.79570  0.95510  Biso   1.000  C
  H224     1.0000 0.72030  0.80600  0.98750  Biso   1.000  H
  C296     1.0000 0.66400  0.78020  0.02150  Biso   1.000  C
  H225     1.0000 0.66720  0.78080  0.09820  Biso   1.000  H
  Cd6      1.0000 0.75318  0.32404  0.73614  Biso   1.000  Cd
  N29      1.0000 0.69192  0.29703  0.82730  Biso   1.000  N
  N30      1.0000 0.69700  0.35473  0.64230  Biso   1.000  N
  O6       1.0000 0.75363  0.36379  0.87400  Biso   1.000  O
  N31      1.0000 0.81102  0.35328  0.64070  Biso   1.000  N
  N32      1.0000 0.80996  0.29662  0.83950  Biso   1.000  N
  C297     1.0000 0.69272  0.26586  0.83810  Biso   1.000  C
  C298     1.0000 0.65753  0.31200  0.87800  Biso   1.000  C
  C299     1.0000 0.69802  0.38644  0.64040  Biso   1.000  C
  C300     1.0000 0.66274  0.34104  0.58460  Biso   1.000  C
  H226     1.0000 0.73770  0.38230  0.84680  Biso   1.000  H
  H227     1.0000 0.71590  0.25460  0.80070  Biso   1.000  H
  C301     1.0000 0.66136  0.24877  0.90140  Biso   1.000  C
  C302     1.0000 0.62431  0.29686  0.94380  Biso   1.000  C
  H228     1.0000 0.65530  0.33400  0.86930  Biso   1.000  H
  H229     1.0000 0.72150  0.39680  0.67980  Biso   1.000  H
  C303     1.0000 0.66573  0.40508  0.58250  Biso   1.000  C
  C304     1.0000 0.63029  0.35737  0.52330  Biso   1.000  C
  H230     1.0000 0.66070  0.31890  0.58600  Biso   1.000  H
  H231     1.0000 0.66400  0.22670  0.90560  Biso   1.000  H
  C305     1.0000 0.62614  0.26401  0.95860  Biso   1.000  C
  H232     1.0000 0.60090  0.30870  0.97780  Biso   1.000  H
  H233     1.0000 0.66760  0.42720  0.58540  Biso   1.000  H
  C306     1.0000 0.63100  0.39060  0.52100  Biso   1.000  C
  H234     1.0000 0.60780  0.34630  0.48320  Biso   1.000  H
  C307     1.0000 0.59223  0.24704  0.02950  Biso   1.000  C
  C308     1.0000 0.59638  0.40866  0.45550  Biso   1.000  C
  C309     1.0000 0.60020  0.21652  0.06630  Biso   1.000  C
  C310     1.0000 0.55169  0.26117  0.06710  Biso   1.000  C
  C311     1.0000 0.60532  0.43918  0.41680  Biso   1.000  C
  C312     1.0000 0.55345  0.39584  0.42840  Biso   1.000  C
  H235     1.0000 0.62690  0.20580  0.04280  Biso   1.000  H
  C313     1.0000 0.56979  0.20145  0.13670  Biso   1.000  C
  C314     1.0000 0.52088  0.24593  0.13630  Biso   1.000  C
  H236     1.0000 0.54500  0.28190  0.04460  Biso   1.000  H
  H237     1.0000 0.63330  0.44910  0.43560  Biso   1.000  H
  C315     1.0000 0.57352  0.45513  0.35110  Biso   1.000  C
  C316     1.0000 0.52131  0.41136  0.36410  Biso   1.000  C
  H238     1.0000 0.54600  0.37570  0.45520  Biso   1.000  H
  H239     1.0000 0.57640  0.18070  0.15880  Biso   1.000  H
  C317     1.0000 0.52999  0.21588  0.17580  Biso   1.000  C
  H240     1.0000 0.49330  0.25610  0.15680  Biso   1.000  H
  H241     1.0000 0.58040  0.47560  0.32690  Biso   1.000  H
  C318     1.0000 0.53162  0.44118  0.32070  Biso   1.000  C
  H242     1.0000 0.49250  0.40190  0.34940  Biso   1.000  H
  C319     1.0000 0.52086  0.14962  0.33520  Biso   1.000  C
  C320     1.0000 0.48092  0.50844  0.33640  Biso   1.000  C
  H243     1.0000 0.53500  0.16070  0.39310  Biso   1.000  H
  C321     1.0000 0.52091  0.11631  0.33560  Biso   1.000  C
  H244     1.0000 0.46810  0.49740  0.39590  Biso   1.000  H
  C322     1.0000 0.48033  0.54127  0.33660  Biso   1.000  C
  H245     1.0000 0.53510  0.10540  0.39370  Biso   1.000  H
  H246     1.0000 0.46660  0.55220  0.39530  Biso   1.000  H
  C323     1.0000 0.53682  0.04672  0.29440  Biso   1.000  C
  C324     1.0000 0.45901  0.61097  0.26380  Biso   1.000  C
  H247     1.0000 0.56200  0.05760  0.32510  Biso   1.000  H
  C325     1.0000 0.53718  0.01386  0.29430  Biso   1.000  C
  H248     1.0000 0.43100  0.60010  0.27370  Biso   1.000  H
  C326     1.0000 0.45872  0.64353  0.26310  Biso   1.000  C
  H249     1.0000 0.56260  0.00310  0.32430  Biso   1.000  H
  H250     1.0000 0.43060  0.65440  0.27150  Biso   1.000  H
  C327     1.0000 0.46901  0.94531  0.18150  Biso   1.000  C
  C328     1.0000 0.46869  0.71140  0.32040  Biso   1.000  C
  C329     1.0000 0.44107  0.92260  0.22850  Biso   1.000  C
  C330     1.0000 0.46653  0.94956  0.07040  Biso   1.000  C
  C331     1.0000 0.46025  0.70152  0.42830  Biso   1.000  C
  C332     1.0000 0.44598  0.73826  0.28180  Biso   1.000  C
  H251     1.0000 0.44250  0.91910  0.30450  Biso   1.000  H
  C333     1.0000 0.41078  0.90471  0.16460  Biso   1.000  C
  C334     1.0000 0.43666  0.93117  0.00690  Biso   1.000  C
  H252     1.0000 0.48510  0.96500  0.03660  Biso   1.000  H
  H253     1.0000 0.47530  0.68350  0.45540  Biso   1.000  H
  C335     1.0000 0.42998  0.71794  0.49550  Biso   1.000  C
  C336     1.0000 0.41551  0.75455  0.34980  Biso   1.000  C
  H254     1.0000 0.45130  0.74530  0.20990  Biso   1.000  H
  H255     1.0000 0.39190  0.88960  0.19890  Biso   1.000  H
  C337     1.0000 0.40782  0.90862  0.05330  Biso   1.000  C
  H256     1.0000 0.43610  0.93420  0.93060  Biso   1.000  H
  H257     1.0000 0.42490  0.71090  0.56760  Biso   1.000  H
  C338     1.0000 0.40680  0.74496  0.45690  Biso   1.000  C
  H258     1.0000 0.40040  0.77250  0.32250  Biso   1.000  H
  C339     1.0000 0.37512  0.88938  0.98570  Biso   1.000  C
  C340     1.0000 0.37381  0.76307  0.52940  Biso   1.000  C
  C341     1.0000 0.33885  0.87318  0.03130  Biso   1.000  C
  C342     1.0000 0.37837  0.88633  0.87320  Biso   1.000  C
  C343     1.0000 0.35570  0.74960  0.62420  Biso   1.000  C
  C344     1.0000 0.36620  0.79470  0.51540  Biso   1.000  C
  H259     1.0000 0.33430  0.87410  0.10750  Biso   1.000  H
  C345     1.0000 0.30847  0.85534  0.96690  Biso   1.000  C
  C346     1.0000 0.34614  0.86835  0.81450  Biso   1.000  C
  H260     1.0000 0.40250  0.89650  0.83550  Biso   1.000  H
  H261     1.0000 0.36490  0.72920  0.64530  Biso   1.000  H
  C347     1.0000 0.32400  0.76610  0.68760  Biso   1.000  C
  C348     1.0000 0.33350  0.80980  0.58240  Biso   1.000  C
  H262     1.0000 0.38250  0.80610  0.46190  Biso   1.000  H
  H263     1.0000 0.28480  0.84410  0.00260  Biso   1.000  H
  H264     1.0000 0.34980  0.86690  0.73800  Biso   1.000  H
  H265     1.0000 0.31170  0.75650  0.75060  Biso   1.000  H
  H266     1.0000 0.32820  0.83130  0.56950  Biso   1.000  H
  C349     1.0000 0.37620  0.76460  0.63820  Biso   1.000  C
  H267     1.0000 0.40040  0.75430  0.67520  Biso   1.000  H
  C350     1.0000 0.34280  0.78150  0.69860  Biso   1.000  C
  H268     1.0000 0.34580  0.78120  0.77540  Biso   1.000  H
  C351     1.0000 0.30500  0.79570  0.54490  Biso   1.000  C
  H269     1.0000 0.27970  0.80600  0.51250  Biso   1.000  H
  C352     1.0000 0.33600  0.78020  0.47850  Biso   1.000  C
  H270     1.0000 0.33280  0.78080  0.40180  Biso   1.000  H
  Cd7      1.0000 0.74682  0.82404  0.73614  Biso   1.000  Cd
  N33      1.0000 0.80808  0.79703  0.82730  Biso   1.000  N
  N34      1.0000 0.80300  0.85473  0.64230  Biso   1.000  N
  O7       1.0000 0.74637  0.86379  0.87400  Biso   1.000  O
  N35      1.0000 0.68898  0.85328  0.64070  Biso   1.000  N
  N36      1.0000 0.69004  0.79662  0.83950  Biso   1.000  N
  C353     1.0000 0.80728  0.76586  0.83810  Biso   1.000  C
  C354     1.0000 0.84247  0.81200  0.87800  Biso   1.000  C
  C355     1.0000 0.80198  0.88644  0.64040  Biso   1.000  C
  C356     1.0000 0.83726  0.84104  0.58460  Biso   1.000  C
  H271     1.0000 0.76230  0.88230  0.84680  Biso   1.000  H
  H272     1.0000 0.78410  0.75460  0.80070  Biso   1.000  H
  C357     1.0000 0.83864  0.74877  0.90140  Biso   1.000  C
  C358     1.0000 0.87569  0.79686  0.94380  Biso   1.000  C
  H273     1.0000 0.84470  0.83400  0.86930  Biso   1.000  H
  H274     1.0000 0.77850  0.89680  0.67980  Biso   1.000  H
  C359     1.0000 0.83427  0.90508  0.58250  Biso   1.000  C
  C360     1.0000 0.86971  0.85737  0.52330  Biso   1.000  C
  H275     1.0000 0.83930  0.81890  0.58600  Biso   1.000  H
  H276     1.0000 0.83600  0.72670  0.90560  Biso   1.000  H
  C361     1.0000 0.87386  0.76401  0.95860  Biso   1.000  C
  H277     1.0000 0.89910  0.80870  0.97780  Biso   1.000  H
  H278     1.0000 0.83240  0.92720  0.58540  Biso   1.000  H
  C362     1.0000 0.86900  0.89060  0.52100  Biso   1.000  C
  H279     1.0000 0.89220  0.84630  0.48320  Biso   1.000  H
  C363     1.0000 0.90777  0.74704  0.02950  Biso   1.000  C
  C364     1.0000 0.90362  0.90866  0.45550  Biso   1.000  C
  C365     1.0000 0.89980  0.71652  0.06630  Biso   1.000  C
  C366     1.0000 0.94831  0.76117  0.06710  Biso   1.000  C
  C367     1.0000 0.89468  0.93918  0.41680  Biso   1.000  C
  C368     1.0000 0.94655  0.89584  0.42840  Biso   1.000  C
  H280     1.0000 0.87310  0.70580  0.04280  Biso   1.000  H
  C369     1.0000 0.93021  0.70145  0.13670  Biso   1.000  C
  C370     1.0000 0.97912  0.74593  0.13630  Biso   1.000  C
  H281     1.0000 0.95500  0.78190  0.04460  Biso   1.000  H
  H282     1.0000 0.86670  0.94910  0.43560  Biso   1.000  H
  C371     1.0000 0.92648  0.95513  0.35110  Biso   1.000  C
  C372     1.0000 0.97869  0.91136  0.36410  Biso   1.000  C
  H283     1.0000 0.95400  0.87570  0.45520  Biso   1.000  H
  H284     1.0000 0.92360  0.68070  0.15880  Biso   1.000  H
  C373     1.0000 0.97001  0.71588  0.17580  Biso   1.000  C
  H285     1.0000 0.00670  0.75610  0.15680  Biso   1.000  H
  H286     1.0000 0.91960  0.97560  0.32690  Biso   1.000  H
  C374     1.0000 0.96838  0.94118  0.32070  Biso   1.000  C
  H287     1.0000 0.00750  0.90190  0.34940  Biso   1.000  H
  C375     1.0000 0.97914  0.64962  0.33520  Biso   1.000  C
  C376     1.0000 0.01908  0.00844  0.33640  Biso   1.000  C
  H288     1.0000 0.96500  0.66070  0.39310  Biso   1.000  H
  C377     1.0000 0.97909  0.61631  0.33560  Biso   1.000  C
  H289     1.0000 0.03190  0.99740  0.39590  Biso   1.000  H
  C378     1.0000 0.01967  0.04127  0.33660  Biso   1.000  C
  H290     1.0000 0.96490  0.60540  0.39370  Biso   1.000  H
  H291     1.0000 0.03340  0.05220  0.39530  Biso   1.000  H
  C379     1.0000 0.96318  0.54672  0.29440  Biso   1.000  C
  C380     1.0000 0.04099  0.11097  0.26380  Biso   1.000  C
  H292     1.0000 0.93800  0.55760  0.32510  Biso   1.000  H
  C381     1.0000 0.96282  0.51386  0.29430  Biso   1.000  C
  H293     1.0000 0.06900  0.10010  0.27370  Biso   1.000  H
  C382     1.0000 0.04128  0.14353  0.26310  Biso   1.000  C
  H294     1.0000 0.93740  0.50310  0.32430  Biso   1.000  H
  H295     1.0000 0.06940  0.15440  0.27150  Biso   1.000  H
  C383     1.0000 0.03099  0.44531  0.18150  Biso   1.000  C
  C384     1.0000 0.03131  0.21140  0.32040  Biso   1.000  C
  C385     1.0000 0.05893  0.42260  0.22850  Biso   1.000  C
  C386     1.0000 0.03347  0.44956  0.07040  Biso   1.000  C
  C387     1.0000 0.03975  0.20152  0.42830  Biso   1.000  C
  C388     1.0000 0.05402  0.23826  0.28180  Biso   1.000  C
  H296     1.0000 0.05750  0.41910  0.30450  Biso   1.000  H
  C389     1.0000 0.08922  0.40471  0.16460  Biso   1.000  C
  C390     1.0000 0.06334  0.43117  0.00690  Biso   1.000  C
  H297     1.0000 0.01490  0.46500  0.03660  Biso   1.000  H
  H298     1.0000 0.02470  0.18350  0.45540  Biso   1.000  H
  C391     1.0000 0.07002  0.21794  0.49550  Biso   1.000  C
  C392     1.0000 0.08449  0.25455  0.34980  Biso   1.000  C
  H299     1.0000 0.04870  0.24530  0.20990  Biso   1.000  H
  H300     1.0000 0.10810  0.38960  0.19890  Biso   1.000  H
  C393     1.0000 0.09218  0.40862  0.05330  Biso   1.000  C
  H301     1.0000 0.06390  0.43420  0.93060  Biso   1.000  H
  H302     1.0000 0.07510  0.21090  0.56760  Biso   1.000  H
  C394     1.0000 0.09320  0.24496  0.45690  Biso   1.000  C
  H303     1.0000 0.09960  0.27250  0.32250  Biso   1.000  H
  C395     1.0000 0.12488  0.38938  0.98570  Biso   1.000  C
  C396     1.0000 0.12619  0.26307  0.52940  Biso   1.000  C
  C397     1.0000 0.16115  0.37318  0.03130  Biso   1.000  C
  C398     1.0000 0.12163  0.38633  0.87320  Biso   1.000  C
  C399     1.0000 0.14430  0.24960  0.62420  Biso   1.000  C
  C400     1.0000 0.13380  0.29470  0.51540  Biso   1.000  C
  H304     1.0000 0.16570  0.37410  0.10750  Biso   1.000  H
  C401     1.0000 0.19153  0.35534  0.96690  Biso   1.000  C
  C402     1.0000 0.15386  0.36835  0.81450  Biso   1.000  C
  H305     1.0000 0.09750  0.39650  0.83550  Biso   1.000  H
  H306     1.0000 0.13510  0.22920  0.64530  Biso   1.000  H
  C403     1.0000 0.17600  0.26610  0.68760  Biso   1.000  C
  C404     1.0000 0.16650  0.30980  0.58240  Biso   1.000  C
  H307     1.0000 0.11750  0.30610  0.46190  Biso   1.000  H
  H308     1.0000 0.21520  0.34410  0.00260  Biso   1.000  H
  H309     1.0000 0.15020  0.36690  0.73800  Biso   1.000  H
  H310     1.0000 0.18830  0.25650  0.75060  Biso   1.000  H
  H311     1.0000 0.17180  0.33130  0.56950  Biso   1.000  H
  C405     1.0000 0.12380  0.26460  0.63820  Biso   1.000  C
  H312     1.0000 0.09960  0.25430  0.67520  Biso   1.000  H
  C406     1.0000 0.15720  0.28150  0.69860  Biso   1.000  C
  H313     1.0000 0.15420  0.28120  0.77540  Biso   1.000  H
  C407     1.0000 0.19500  0.29570  0.54490  Biso   1.000  C
  H314     1.0000 0.22030  0.30600  0.51250  Biso   1.000  H
  C408     1.0000 0.16400  0.28020  0.47850  Biso   1.000  C
  H315     1.0000 0.16720  0.28080  0.40180  Biso   1.000  H
  Cd8      1.0000 0.25318  0.82404  0.76386  Biso   1.000  Cd
  N37      1.0000 0.19192  0.79703  0.67270  Biso   1.000  N
  N38      1.0000 0.19700  0.85473  0.85770  Biso   1.000  N
  O8       1.0000 0.25363  0.86379  0.62600  Biso   1.000  O
  N39      1.0000 0.31102  0.85328  0.85930  Biso   1.000  N
  N40      1.0000 0.30996  0.79662  0.66050  Biso   1.000  N
  C409     1.0000 0.19272  0.76586  0.66190  Biso   1.000  C
  C410     1.0000 0.15753  0.81200  0.62200  Biso   1.000  C
  C411     1.0000 0.19802  0.88644  0.85960  Biso   1.000  C
  C412     1.0000 0.16274  0.84104  0.91540  Biso   1.000  C
  H316     1.0000 0.23770  0.88230  0.65320  Biso   1.000  H
  H317     1.0000 0.21590  0.75460  0.69930  Biso   1.000  H
  C413     1.0000 0.16136  0.74877  0.59860  Biso   1.000  C
  C414     1.0000 0.12431  0.79686  0.55620  Biso   1.000  C
  H318     1.0000 0.15530  0.83400  0.63070  Biso   1.000  H
  H319     1.0000 0.22150  0.89680  0.82020  Biso   1.000  H
  C415     1.0000 0.16573  0.90508  0.91750  Biso   1.000  C
  C416     1.0000 0.13029  0.85737  0.97670  Biso   1.000  C
  H320     1.0000 0.16070  0.81890  0.91400  Biso   1.000  H
  H321     1.0000 0.16400  0.72670  0.59440  Biso   1.000  H
  C417     1.0000 0.12614  0.76401  0.54140  Biso   1.000  C
  H322     1.0000 0.10090  0.80870  0.52220  Biso   1.000  H
  H323     1.0000 0.16760  0.92720  0.91460  Biso   1.000  H
  C418     1.0000 0.13100  0.89060  0.97900  Biso   1.000  C
  H324     1.0000 0.10780  0.84630  0.01680  Biso   1.000  H
  C419     1.0000 0.09223  0.74704  0.47050  Biso   1.000  C
  C420     1.0000 0.09638  0.90866  0.04450  Biso   1.000  C
  C421     1.0000 0.10020  0.71652  0.43370  Biso   1.000  C
  C422     1.0000 0.05169  0.76117  0.43290  Biso   1.000  C
  C423     1.0000 0.10532  0.93918  0.08320  Biso   1.000  C
  C424     1.0000 0.05345  0.89584  0.07160  Biso   1.000  C
  H325     1.0000 0.12690  0.70580  0.45720  Biso   1.000  H
  C425     1.0000 0.06979  0.70145  0.36330  Biso   1.000  C
  C426     1.0000 0.02088  0.74593  0.36370  Biso   1.000  C
  H326     1.0000 0.04500  0.78190  0.45540  Biso   1.000  H
  H327     1.0000 0.13330  0.94910  0.06440  Biso   1.000  H
  C427     1.0000 0.07352  0.95513  0.14890  Biso   1.000  C
  C428     1.0000 0.02131  0.91136  0.13590  Biso   1.000  C
  H328     1.0000 0.04600  0.87570  0.04480  Biso   1.000  H
  H329     1.0000 0.07640  0.68070  0.34120  Biso   1.000  H
  C429     1.0000 0.02999  0.71588  0.32420  Biso   1.000  C
  H330     1.0000 0.99330  0.75610  0.34320  Biso   1.000  H
  H331     1.0000 0.08040  0.97560  0.17310  Biso   1.000  H
  C430     1.0000 0.03162  0.94118  0.17930  Biso   1.000  C
  H332     1.0000 0.99250  0.90190  0.15060  Biso   1.000  H
  C431     1.0000 0.02086  0.64962  0.16480  Biso   1.000  C
  C432     1.0000 0.98092  0.00844  0.16360  Biso   1.000  C
  H333     1.0000 0.03500  0.66070  0.10690  Biso   1.000  H
  C433     1.0000 0.02091  0.61631  0.16440  Biso   1.000  C
  H334     1.0000 0.96810  0.99740  0.10410  Biso   1.000  H
  C434     1.0000 0.98033  0.04127  0.16340  Biso   1.000  C
  H335     1.0000 0.03510  0.60540  0.10630  Biso   1.000  H
  H336     1.0000 0.96660  0.05220  0.10470  Biso   1.000  H
  C435     1.0000 0.03682  0.54672  0.20560  Biso   1.000  C
  C436     1.0000 0.95901  0.11097  0.23620  Biso   1.000  C
  H337     1.0000 0.06200  0.55760  0.17490  Biso   1.000  H
  C437     1.0000 0.03718  0.51386  0.20570  Biso   1.000  C
  H338     1.0000 0.93100  0.10010  0.22630  Biso   1.000  H
  C438     1.0000 0.95872  0.14353  0.23690  Biso   1.000  C
  H339     1.0000 0.06260  0.50310  0.17570  Biso   1.000  H
  H340     1.0000 0.93060  0.15440  0.22850  Biso   1.000  H
  C439     1.0000 0.96901  0.44531  0.31850  Biso   1.000  C
  C440     1.0000 0.96869  0.21140  0.17960  Biso   1.000  C
  C441     1.0000 0.94107  0.42260  0.27150  Biso   1.000  C
  C442     1.0000 0.96653  0.44956  0.42960  Biso   1.000  C
  C443     1.0000 0.96025  0.20152  0.07170  Biso   1.000  C
  C444     1.0000 0.94598  0.23826  0.21820  Biso   1.000  C
  H341     1.0000 0.94250  0.41910  0.19550  Biso   1.000  H
  C445     1.0000 0.91078  0.40471  0.33540  Biso   1.000  C
  C446     1.0000 0.93666  0.43117  0.49310  Biso   1.000  C
  H342     1.0000 0.98510  0.46500  0.46340  Biso   1.000  H
  H343     1.0000 0.97530  0.18350  0.04460  Biso   1.000  H
  C447     1.0000 0.92998  0.21794  0.00450  Biso   1.000  C
  C448     1.0000 0.91551  0.25455  0.15020  Biso   1.000  C
  H344     1.0000 0.95130  0.24530  0.29010  Biso   1.000  H
  H345     1.0000 0.89190  0.38960  0.30110  Biso   1.000  H
  C449     1.0000 0.90782  0.40862  0.44670  Biso   1.000  C
  H346     1.0000 0.93610  0.43420  0.56940  Biso   1.000  H
  H347     1.0000 0.92490  0.21090  0.93240  Biso   1.000  H
  C450     1.0000 0.90680  0.24496  0.04310  Biso   1.000  C
  H348     1.0000 0.90040  0.27250  0.17750  Biso   1.000  H
  C451     1.0000 0.87512  0.38938  0.51430  Biso   1.000  C
  C452     1.0000 0.87381  0.26307  0.97060  Biso   1.000  C
  C453     1.0000 0.83885  0.37318  0.46870  Biso   1.000  C
  C454     1.0000 0.87837  0.38633  0.62680  Biso   1.000  C
  C455     1.0000 0.85570  0.24960  0.87580  Biso   1.000  C
  C456     1.0000 0.86620  0.29470  0.98460  Biso   1.000  C
  H349     1.0000 0.83430  0.37410  0.39250  Biso   1.000  H
  C457     1.0000 0.80847  0.35534  0.53310  Biso   1.000  C
  C458     1.0000 0.84614  0.36835  0.68550  Biso   1.000  C
  H350     1.0000 0.90250  0.39650  0.66450  Biso   1.000  H
  H351     1.0000 0.86490  0.22920  0.85470  Biso   1.000  H
  C459     1.0000 0.82400  0.26610  0.81240  Biso   1.000  C
  C460     1.0000 0.83350  0.30980  0.91760  Biso   1.000  C
  H352     1.0000 0.88250  0.30610  0.03810  Biso   1.000  H
  H353     1.0000 0.78480  0.34410  0.49740  Biso   1.000  H
  H354     1.0000 0.84980  0.36690  0.76200  Biso   1.000  H
  H355     1.0000 0.81170  0.25650  0.74940  Biso   1.000  H
  H356     1.0000 0.82820  0.33130  0.93050  Biso   1.000  H
  C461     1.0000 0.87620  0.26460  0.86180  Biso   1.000  C
  H357     1.0000 0.90040  0.25430  0.82480  Biso   1.000  H
  C462     1.0000 0.84280  0.28150  0.80140  Biso   1.000  C
  H358     1.0000 0.84580  0.28120  0.72460  Biso   1.000  H
  C463     1.0000 0.80500  0.29570  0.95510  Biso   1.000  C
  H359     1.0000 0.77970  0.30600  0.98750  Biso   1.000  H
  C464     1.0000 0.83600  0.28020  0.02150  Biso   1.000  C
  H360     1.0000 0.83280  0.28080  0.09820  Biso   1.000  H
  N41      1.0000 0.50000  0.20033  0.25000  Biso   1.000  N
  C465     1.0000 0.50000  0.16629  0.25000  Biso   1.000  C
  C466     1.0000 0.50000  0.09918  0.25000  Biso   1.000  C
  C467     1.0000 0.50000  0.06395  0.25000  Biso   1.000  C
  C468     1.0000 0.50000  0.99647  0.25000  Biso   1.000  C
  N42      1.0000 0.50000  0.96325  0.25000  Biso   1.000  N
  N43      1.0000 0.00000  0.70033  0.25000  Biso   1.000  N
  C469     1.0000 0.00000  0.66629  0.25000  Biso   1.000  C
  C470     1.0000 0.00000  0.59918  0.25000  Biso   1.000  C
  C471     1.0000 0.00000  0.56395  0.25000  Biso   1.000  C
  C472     1.0000 0.00000  0.49647  0.25000  Biso   1.000  C
  N44      1.0000 0.00000  0.46325  0.25000  Biso   1.000  N
  N45      1.0000 0.50000  0.45746  0.25000  Biso   1.000  N
  C473     1.0000 0.50000  0.49185  0.25000  Biso   1.000  C
  C474     1.0000 0.50000  0.55787  0.25000  Biso   1.000  C
  C475     1.0000 0.50000  0.59362  0.25000  Biso   1.000  C
  C476     1.0000 0.50000  0.66056  0.25000  Biso   1.000  C
  N46      1.0000 0.50000  0.69415  0.25000  Biso   1.000  N
  N47      1.0000 0.00000  0.95746  0.25000  Biso   1.000  N
  C477     1.0000 0.00000  0.99185  0.25000  Biso   1.000  C
  C478     1.0000 0.00000  0.05787  0.25000  Biso   1.000  C
  C479     1.0000 0.00000  0.09362  0.25000  Biso   1.000  C
  C480     1.0000 0.00000  0.16056  0.25000  Biso   1.000  C
  N48      1.0000 0.00000  0.19415  0.25000  Biso   1.000  N
