data_image0
_cell_length_a       40.9779
_cell_length_b       40.9779
_cell_length_c       40.9779
_cell_angle_alpha    90
_cell_angle_beta     90
_cell_angle_gamma    90

_symmetry_space_group_name_H-M    "P 1"
_symmetry_int_tables_number       1

loop_
  _symmetry_equiv_pos_as_xyz
  'x, y, z'

loop_
  _atom_site_label
  _atom_site_occupancy
  _atom_site_fract_x
  _atom_site_fract_y
  _atom_site_fract_z
  _atom_site_thermal_displace_type
  _atom_site_B_iso_or_equiv
  _atom_site_type_symbol
  O1       1.0000 0.18638  0.43533  0.01030  Biso   1.000  O
  H1       1.0000 0.20460  0.32300  0.07440  Biso   1.000  H
  O2       1.0000 0.24680  0.48930  0.03940  Biso   1.000  O
  O3       1.0000 0.18638  0.93533  0.51030  Biso   1.000  O
  H2       1.0000 0.20460  0.82300  0.57440  Biso   1.000  H
  O4       1.0000 0.24680  0.98930  0.53940  Biso   1.000  O
  O5       1.0000 0.68638  0.43533  0.51030  Biso   1.000  O
  H3       1.0000 0.70460  0.32300  0.57440  Biso   1.000  H
  O6       1.0000 0.74680  0.48930  0.53940  Biso   1.000  O
  O7       1.0000 0.68638  0.93533  0.01030  Biso   1.000  O
  H4       1.0000 0.70460  0.82300  0.07440  Biso   1.000  H
  O8       1.0000 0.74680  0.98930  0.03940  Biso   1.000  O
  O9       1.0000 0.81362  0.56467  0.01030  Biso   1.000  O
  H5       1.0000 0.79540  0.67700  0.07440  Biso   1.000  H
  O10      1.0000 0.75320  0.51070  0.03940  Biso   1.000  O
  O11      1.0000 0.81362  0.06467  0.51030  Biso   1.000  O
  H6       1.0000 0.79540  0.17700  0.57440  Biso   1.000  H
  O12      1.0000 0.75320  0.01070  0.53940  Biso   1.000  O
  O13      1.0000 0.31362  0.56467  0.51030  Biso   1.000  O
  H7       1.0000 0.29540  0.67700  0.57440  Biso   1.000  H
  O14      1.0000 0.25320  0.51070  0.53940  Biso   1.000  O
  O15      1.0000 0.31362  0.06467  0.01030  Biso   1.000  O
  H8       1.0000 0.29540  0.17700  0.07440  Biso   1.000  H
  O16      1.0000 0.25320  0.01070  0.03940  Biso   1.000  O
  O17      1.0000 0.81362  0.43533  0.98970  Biso   1.000  O
  H9       1.0000 0.79540  0.32300  0.92560  Biso   1.000  H
  O18      1.0000 0.75320  0.48930  0.96060  Biso   1.000  O
  O19      1.0000 0.81362  0.93533  0.48970  Biso   1.000  O
  H10      1.0000 0.79540  0.82300  0.42560  Biso   1.000  H
  O20      1.0000 0.75320  0.98930  0.46060  Biso   1.000  O
  O21      1.0000 0.31362  0.43533  0.48970  Biso   1.000  O
  H11      1.0000 0.29540  0.32300  0.42560  Biso   1.000  H
  O22      1.0000 0.25320  0.48930  0.46060  Biso   1.000  O
  O23      1.0000 0.31362  0.93533  0.98970  Biso   1.000  O
  H12      1.0000 0.29540  0.82300  0.92560  Biso   1.000  H
  O24      1.0000 0.25320  0.98930  0.96060  Biso   1.000  O
  O25      1.0000 0.18638  0.56467  0.98970  Biso   1.000  O
  H13      1.0000 0.20460  0.67700  0.92560  Biso   1.000  H
  O26      1.0000 0.24680  0.51070  0.96060  Biso   1.000  O
  O27      1.0000 0.18638  0.06467  0.48970  Biso   1.000  O
  H14      1.0000 0.20460  0.17700  0.42560  Biso   1.000  H
  O28      1.0000 0.24680  0.01070  0.46060  Biso   1.000  O
  O29      1.0000 0.68638  0.56467  0.48970  Biso   1.000  O
  H15      1.0000 0.70460  0.67700  0.42560  Biso   1.000  H
  O30      1.0000 0.74680  0.51070  0.46060  Biso   1.000  O
  O31      1.0000 0.68638  0.06467  0.98970  Biso   1.000  O
  H16      1.0000 0.70460  0.17700  0.92560  Biso   1.000  H
  O32      1.0000 0.74680  0.01070  0.96060  Biso   1.000  O
  O33      1.0000 0.01030  0.18638  0.43533  Biso   1.000  O
  H17      1.0000 0.07440  0.20460  0.32300  Biso   1.000  H
  O34      1.0000 0.03940  0.24680  0.48930  Biso   1.000  O
  O35      1.0000 0.01030  0.68638  0.93533  Biso   1.000  O
  H18      1.0000 0.07440  0.70460  0.82300  Biso   1.000  H
  O36      1.0000 0.03940  0.74680  0.98930  Biso   1.000  O
  O37      1.0000 0.51030  0.18638  0.93533  Biso   1.000  O
  H19      1.0000 0.57440  0.20460  0.82300  Biso   1.000  H
  O38      1.0000 0.53940  0.24680  0.98930  Biso   1.000  O
  O39      1.0000 0.51030  0.68638  0.43533  Biso   1.000  O
  H20      1.0000 0.57440  0.70460  0.32300  Biso   1.000  H
  O40      1.0000 0.53940  0.74680  0.48930  Biso   1.000  O
  O41      1.0000 0.01030  0.81362  0.56467  Biso   1.000  O
  H21      1.0000 0.07440  0.79540  0.67700  Biso   1.000  H
  O42      1.0000 0.03940  0.75320  0.51070  Biso   1.000  O
  O43      1.0000 0.01030  0.31362  0.06467  Biso   1.000  O
  H22      1.0000 0.07440  0.29540  0.17700  Biso   1.000  H
  O44      1.0000 0.03940  0.25320  0.01070  Biso   1.000  O
  O45      1.0000 0.51030  0.81362  0.06467  Biso   1.000  O
  H23      1.0000 0.57440  0.79540  0.17700  Biso   1.000  H
  O46      1.0000 0.53940  0.75320  0.01070  Biso   1.000  O
  O47      1.0000 0.51030  0.31362  0.56467  Biso   1.000  O
  H24      1.0000 0.57440  0.29540  0.67700  Biso   1.000  H
  O48      1.0000 0.53940  0.25320  0.51070  Biso   1.000  O
  O49      1.0000 0.98970  0.81362  0.43533  Biso   1.000  O
  H25      1.0000 0.92560  0.79540  0.32300  Biso   1.000  H
  O50      1.0000 0.96060  0.75320  0.48930  Biso   1.000  O
  O51      1.0000 0.98970  0.31362  0.93533  Biso   1.000  O
  H26      1.0000 0.92560  0.29540  0.82300  Biso   1.000  H
  O52      1.0000 0.96060  0.25320  0.98930  Biso   1.000  O
  O53      1.0000 0.48970  0.81362  0.93533  Biso   1.000  O
  H27      1.0000 0.42560  0.79540  0.82300  Biso   1.000  H
  O54      1.0000 0.46060  0.75320  0.98930  Biso   1.000  O
  O55      1.0000 0.48970  0.31362  0.43533  Biso   1.000  O
  H28      1.0000 0.42560  0.29540  0.32300  Biso   1.000  H
  O56      1.0000 0.46060  0.25320  0.48930  Biso   1.000  O
  O57      1.0000 0.98970  0.18638  0.56467  Biso   1.000  O
  H29      1.0000 0.92560  0.20460  0.67700  Biso   1.000  H
  O58      1.0000 0.96060  0.24680  0.51070  Biso   1.000  O
  O59      1.0000 0.98970  0.68638  0.06467  Biso   1.000  O
  H30      1.0000 0.92560  0.70460  0.17700  Biso   1.000  H
  O60      1.0000 0.96060  0.74680  0.01070  Biso   1.000  O
  O61      1.0000 0.48970  0.18638  0.06467  Biso   1.000  O
  H31      1.0000 0.42560  0.20460  0.17700  Biso   1.000  H
  O62      1.0000 0.46060  0.24680  0.01070  Biso   1.000  O
  O63      1.0000 0.48970  0.68638  0.56467  Biso   1.000  O
  H32      1.0000 0.42560  0.70460  0.67700  Biso   1.000  H
  O64      1.0000 0.46060  0.74680  0.51070  Biso   1.000  O
  O65      1.0000 0.43533  0.01030  0.18638  Biso   1.000  O
  H33      1.0000 0.32300  0.07440  0.20460  Biso   1.000  H
  O66      1.0000 0.48930  0.03940  0.24680  Biso   1.000  O
  O67      1.0000 0.43533  0.51030  0.68638  Biso   1.000  O
  H34      1.0000 0.32300  0.57440  0.70460  Biso   1.000  H
  O68      1.0000 0.48930  0.53940  0.74680  Biso   1.000  O
  O69      1.0000 0.93533  0.01030  0.68638  Biso   1.000  O
  H35      1.0000 0.82300  0.07440  0.70460  Biso   1.000  H
  O70      1.0000 0.98930  0.03940  0.74680  Biso   1.000  O
  O71      1.0000 0.93533  0.51030  0.18638  Biso   1.000  O
  H36      1.0000 0.82300  0.57440  0.20460  Biso   1.000  H
  O72      1.0000 0.98930  0.53940  0.24680  Biso   1.000  O
  O73      1.0000 0.56467  0.01030  0.81362  Biso   1.000  O
  H37      1.0000 0.67700  0.07440  0.79540  Biso   1.000  H
  O74      1.0000 0.51070  0.03940  0.75320  Biso   1.000  O
  O75      1.0000 0.56467  0.51030  0.31362  Biso   1.000  O
  H38      1.0000 0.67700  0.57440  0.29540  Biso   1.000  H
  O76      1.0000 0.51070  0.53940  0.25320  Biso   1.000  O
  O77      1.0000 0.06467  0.01030  0.31362  Biso   1.000  O
  H39      1.0000 0.17700  0.07440  0.29540  Biso   1.000  H
  O78      1.0000 0.01070  0.03940  0.25320  Biso   1.000  O
  O79      1.0000 0.06467  0.51030  0.81362  Biso   1.000  O
  H40      1.0000 0.17700  0.57440  0.79540  Biso   1.000  H
  O80      1.0000 0.01070  0.53940  0.75320  Biso   1.000  O
  O81      1.0000 0.43533  0.98970  0.81362  Biso   1.000  O
  H41      1.0000 0.32300  0.92560  0.79540  Biso   1.000  H
  O82      1.0000 0.48930  0.96060  0.75320  Biso   1.000  O
  O83      1.0000 0.43533  0.48970  0.31362  Biso   1.000  O
  H42      1.0000 0.32300  0.42560  0.29540  Biso   1.000  H
  O84      1.0000 0.48930  0.46060  0.25320  Biso   1.000  O
  O85      1.0000 0.93533  0.98970  0.31362  Biso   1.000  O
  H43      1.0000 0.82300  0.92560  0.29540  Biso   1.000  H
  O86      1.0000 0.98930  0.96060  0.25320  Biso   1.000  O
  O87      1.0000 0.93533  0.48970  0.81362  Biso   1.000  O
  H44      1.0000 0.82300  0.42560  0.79540  Biso   1.000  H
  O88      1.0000 0.98930  0.46060  0.75320  Biso   1.000  O
  O89      1.0000 0.56467  0.98970  0.18638  Biso   1.000  O
  H45      1.0000 0.67700  0.92560  0.20460  Biso   1.000  H
  O90      1.0000 0.51070  0.96060  0.24680  Biso   1.000  O
  O91      1.0000 0.56467  0.48970  0.68638  Biso   1.000  O
  H46      1.0000 0.67700  0.42560  0.70460  Biso   1.000  H
  O92      1.0000 0.51070  0.46060  0.74680  Biso   1.000  O
  O93      1.0000 0.06467  0.98970  0.68638  Biso   1.000  O
  H47      1.0000 0.17700  0.92560  0.70460  Biso   1.000  H
  O94      1.0000 0.01070  0.96060  0.74680  Biso   1.000  O
  O95      1.0000 0.06467  0.48970  0.18638  Biso   1.000  O
  H48      1.0000 0.17700  0.42560  0.20460  Biso   1.000  H
  O96      1.0000 0.01070  0.46060  0.24680  Biso   1.000  O
  O97      1.0000 0.43533  0.18638  0.98970  Biso   1.000  O
  H49      1.0000 0.32300  0.20460  0.92560  Biso   1.000  H
  O98      1.0000 0.48930  0.24680  0.96060  Biso   1.000  O
  O99      1.0000 0.43533  0.68638  0.48970  Biso   1.000  O
  H50      1.0000 0.32300  0.70460  0.42560  Biso   1.000  H
  O100     1.0000 0.48930  0.74680  0.46060  Biso   1.000  O
  O101     1.0000 0.93533  0.18638  0.48970  Biso   1.000  O
  H51      1.0000 0.82300  0.20460  0.42560  Biso   1.000  H
  O102     1.0000 0.98930  0.24680  0.46060  Biso   1.000  O
  O103     1.0000 0.93533  0.68638  0.98970  Biso   1.000  O
  H52      1.0000 0.82300  0.70460  0.92560  Biso   1.000  H
  O104     1.0000 0.98930  0.74680  0.96060  Biso   1.000  O
  O105     1.0000 0.56467  0.81362  0.98970  Biso   1.000  O
  H53      1.0000 0.67700  0.79540  0.92560  Biso   1.000  H
  O106     1.0000 0.51070  0.75320  0.96060  Biso   1.000  O
  O107     1.0000 0.56467  0.31362  0.48970  Biso   1.000  O
  H54      1.0000 0.67700  0.29540  0.42560  Biso   1.000  H
  O108     1.0000 0.51070  0.25320  0.46060  Biso   1.000  O
  O109     1.0000 0.06467  0.81362  0.48970  Biso   1.000  O
  H55      1.0000 0.17700  0.79540  0.42560  Biso   1.000  H
  O110     1.0000 0.01070  0.75320  0.46060  Biso   1.000  O
  O111     1.0000 0.06467  0.31362  0.98970  Biso   1.000  O
  H56      1.0000 0.17700  0.29540  0.92560  Biso   1.000  H
  O112     1.0000 0.01070  0.25320  0.96060  Biso   1.000  O
  O113     1.0000 0.43533  0.81362  0.01030  Biso   1.000  O
  H57      1.0000 0.32300  0.79540  0.07440  Biso   1.000  H
  O114     1.0000 0.48930  0.75320  0.03940  Biso   1.000  O
  O115     1.0000 0.43533  0.31362  0.51030  Biso   1.000  O
  H58      1.0000 0.32300  0.29540  0.57440  Biso   1.000  H
  O116     1.0000 0.48930  0.25320  0.53940  Biso   1.000  O
  O117     1.0000 0.93533  0.81362  0.51030  Biso   1.000  O
  H59      1.0000 0.82300  0.79540  0.57440  Biso   1.000  H
  O118     1.0000 0.98930  0.75320  0.53940  Biso   1.000  O
  O119     1.0000 0.93533  0.31362  0.01030  Biso   1.000  O
  H60      1.0000 0.82300  0.29540  0.07440  Biso   1.000  H
  O120     1.0000 0.98930  0.25320  0.03940  Biso   1.000  O
  O121     1.0000 0.56467  0.18638  0.01030  Biso   1.000  O
  H61      1.0000 0.67700  0.20460  0.07440  Biso   1.000  H
  O122     1.0000 0.51070  0.24680  0.03940  Biso   1.000  O
  O123     1.0000 0.56467  0.68638  0.51030  Biso   1.000  O
  H62      1.0000 0.67700  0.70460  0.57440  Biso   1.000  H
  O124     1.0000 0.51070  0.74680  0.53940  Biso   1.000  O
  O125     1.0000 0.06467  0.18638  0.51030  Biso   1.000  O
  H63      1.0000 0.17700  0.20460  0.57440  Biso   1.000  H
  O126     1.0000 0.01070  0.24680  0.53940  Biso   1.000  O
  O127     1.0000 0.06467  0.68638  0.01030  Biso   1.000  O
  H64      1.0000 0.17700  0.70460  0.07440  Biso   1.000  H
  O128     1.0000 0.01070  0.74680  0.03940  Biso   1.000  O
  O129     1.0000 0.18638  0.01030  0.56467  Biso   1.000  O
  H65      1.0000 0.20460  0.07440  0.67700  Biso   1.000  H
  O130     1.0000 0.24680  0.03940  0.51070  Biso   1.000  O
  O131     1.0000 0.18638  0.51030  0.06467  Biso   1.000  O
  H66      1.0000 0.20460  0.57440  0.17700  Biso   1.000  H
  O132     1.0000 0.24680  0.53940  0.01070  Biso   1.000  O
  O133     1.0000 0.68638  0.01030  0.06467  Biso   1.000  O
  H67      1.0000 0.70460  0.07440  0.17700  Biso   1.000  H
  O134     1.0000 0.74680  0.03940  0.01070  Biso   1.000  O
  O135     1.0000 0.68638  0.51030  0.56467  Biso   1.000  O
  H68      1.0000 0.70460  0.57440  0.67700  Biso   1.000  H
  O136     1.0000 0.74680  0.53940  0.51070  Biso   1.000  O
  O137     1.0000 0.81362  0.01030  0.43533  Biso   1.000  O
  H69      1.0000 0.79540  0.07440  0.32300  Biso   1.000  H
  O138     1.0000 0.75320  0.03940  0.48930  Biso   1.000  O
  O139     1.0000 0.81362  0.51030  0.93533  Biso   1.000  O
  H70      1.0000 0.79540  0.57440  0.82300  Biso   1.000  H
  O140     1.0000 0.75320  0.53940  0.98930  Biso   1.000  O
  O141     1.0000 0.31362  0.01030  0.93533  Biso   1.000  O
  H71      1.0000 0.29540  0.07440  0.82300  Biso   1.000  H
  O142     1.0000 0.25320  0.03940  0.98930  Biso   1.000  O
  O143     1.0000 0.31362  0.51030  0.43533  Biso   1.000  O
  H72      1.0000 0.29540  0.57440  0.32300  Biso   1.000  H
  O144     1.0000 0.25320  0.53940  0.48930  Biso   1.000  O
  O145     1.0000 0.81362  0.98970  0.56467  Biso   1.000  O
  H73      1.0000 0.79540  0.92560  0.67700  Biso   1.000  H
  O146     1.0000 0.75320  0.96060  0.51070  Biso   1.000  O
  O147     1.0000 0.81362  0.48970  0.06467  Biso   1.000  O
  H74      1.0000 0.79540  0.42560  0.17700  Biso   1.000  H
  O148     1.0000 0.75320  0.46060  0.01070  Biso   1.000  O
  O149     1.0000 0.31362  0.98970  0.06467  Biso   1.000  O
  H75      1.0000 0.29540  0.92560  0.17700  Biso   1.000  H
  O150     1.0000 0.25320  0.96060  0.01070  Biso   1.000  O
  O151     1.0000 0.31362  0.48970  0.56467  Biso   1.000  O
  H76      1.0000 0.29540  0.42560  0.67700  Biso   1.000  H
  O152     1.0000 0.25320  0.46060  0.51070  Biso   1.000  O
  O153     1.0000 0.18638  0.98970  0.43533  Biso   1.000  O
  H77      1.0000 0.20460  0.92560  0.32300  Biso   1.000  H
  O154     1.0000 0.24680  0.96060  0.48930  Biso   1.000  O
  O155     1.0000 0.18638  0.48970  0.93533  Biso   1.000  O
  H78      1.0000 0.20460  0.42560  0.82300  Biso   1.000  H
  O156     1.0000 0.24680  0.46060  0.98930  Biso   1.000  O
  O157     1.0000 0.68638  0.98970  0.93533  Biso   1.000  O
  H79      1.0000 0.70460  0.92560  0.82300  Biso   1.000  H
  O158     1.0000 0.74680  0.96060  0.98930  Biso   1.000  O
  O159     1.0000 0.68638  0.48970  0.43533  Biso   1.000  O
  H80      1.0000 0.70460  0.42560  0.32300  Biso   1.000  H
  O160     1.0000 0.74680  0.46060  0.48930  Biso   1.000  O
  O161     1.0000 0.01030  0.43533  0.81362  Biso   1.000  O
  H81      1.0000 0.07440  0.32300  0.79540  Biso   1.000  H
  O162     1.0000 0.03940  0.48930  0.75320  Biso   1.000  O
  O163     1.0000 0.01030  0.93533  0.31362  Biso   1.000  O
  H82      1.0000 0.07440  0.82300  0.29540  Biso   1.000  H
  O164     1.0000 0.03940  0.98930  0.25320  Biso   1.000  O
  O165     1.0000 0.51030  0.43533  0.31362  Biso   1.000  O
  H83      1.0000 0.57440  0.32300  0.29540  Biso   1.000  H
  O166     1.0000 0.53940  0.48930  0.25320  Biso   1.000  O
  O167     1.0000 0.51030  0.93533  0.81362  Biso   1.000  O
  H84      1.0000 0.57440  0.82300  0.79540  Biso   1.000  H
  O168     1.0000 0.53940  0.98930  0.75320  Biso   1.000  O
  O169     1.0000 0.01030  0.56467  0.18638  Biso   1.000  O
  H85      1.0000 0.07440  0.67700  0.20460  Biso   1.000  H
  O170     1.0000 0.03940  0.51070  0.24680  Biso   1.000  O
  O171     1.0000 0.01030  0.06467  0.68638  Biso   1.000  O
  H86      1.0000 0.07440  0.17700  0.70460  Biso   1.000  H
  O172     1.0000 0.03940  0.01070  0.74680  Biso   1.000  O
  O173     1.0000 0.51030  0.56467  0.68638  Biso   1.000  O
  H87      1.0000 0.57440  0.67700  0.70460  Biso   1.000  H
  O174     1.0000 0.53940  0.51070  0.74680  Biso   1.000  O
  O175     1.0000 0.51030  0.06467  0.18638  Biso   1.000  O
  H88      1.0000 0.57440  0.17700  0.20460  Biso   1.000  H
  O176     1.0000 0.53940  0.01070  0.24680  Biso   1.000  O
  O177     1.0000 0.98970  0.43533  0.18638  Biso   1.000  O
  H89      1.0000 0.92560  0.32300  0.20460  Biso   1.000  H
  O178     1.0000 0.96060  0.48930  0.24680  Biso   1.000  O
  O179     1.0000 0.98970  0.93533  0.68638  Biso   1.000  O
  H90      1.0000 0.92560  0.82300  0.70460  Biso   1.000  H
  O180     1.0000 0.96060  0.98930  0.74680  Biso   1.000  O
  O181     1.0000 0.48970  0.43533  0.68638  Biso   1.000  O
  H91      1.0000 0.42560  0.32300  0.70460  Biso   1.000  H
  O182     1.0000 0.46060  0.48930  0.74680  Biso   1.000  O
  O183     1.0000 0.48970  0.93533  0.18638  Biso   1.000  O
  H92      1.0000 0.42560  0.82300  0.20460  Biso   1.000  H
  O184     1.0000 0.46060  0.98930  0.24680  Biso   1.000  O
  O185     1.0000 0.98970  0.56467  0.81362  Biso   1.000  O
  H93      1.0000 0.92560  0.67700  0.79540  Biso   1.000  H
  O186     1.0000 0.96060  0.51070  0.75320  Biso   1.000  O
  O187     1.0000 0.98970  0.06467  0.31362  Biso   1.000  O
  H94      1.0000 0.92560  0.17700  0.29540  Biso   1.000  H
  O188     1.0000 0.96060  0.01070  0.25320  Biso   1.000  O
  O189     1.0000 0.48970  0.56467  0.31362  Biso   1.000  O
  H95      1.0000 0.42560  0.67700  0.29540  Biso   1.000  H
  O190     1.0000 0.46060  0.51070  0.25320  Biso   1.000  O
  O191     1.0000 0.48970  0.06467  0.81362  Biso   1.000  O
  H96      1.0000 0.42560  0.17700  0.79540  Biso   1.000  H
  O192     1.0000 0.46060  0.01070  0.75320  Biso   1.000  O
  O193     1.0000 0.81362  0.56467  0.98970  Biso   1.000  O
  H97      1.0000 0.79540  0.67700  0.92560  Biso   1.000  H
  O194     1.0000 0.75320  0.51070  0.96060  Biso   1.000  O
  O195     1.0000 0.81362  0.06467  0.48970  Biso   1.000  O
  H98      1.0000 0.79540  0.17700  0.42560  Biso   1.000  H
  O196     1.0000 0.75320  0.01070  0.46060  Biso   1.000  O
  O197     1.0000 0.31362  0.56467  0.48970  Biso   1.000  O
  H99      1.0000 0.29540  0.67700  0.42560  Biso   1.000  H
  O198     1.0000 0.25320  0.51070  0.46060  Biso   1.000  O
  O199     1.0000 0.31362  0.06467  0.98970  Biso   1.000  O
  H100     1.0000 0.29540  0.17700  0.92560  Biso   1.000  H
  O200     1.0000 0.25320  0.01070  0.96060  Biso   1.000  O
  O201     1.0000 0.18638  0.43533  0.98970  Biso   1.000  O
  H101     1.0000 0.20460  0.32300  0.92560  Biso   1.000  H
  O202     1.0000 0.24680  0.48930  0.96060  Biso   1.000  O
  O203     1.0000 0.18638  0.93533  0.48970  Biso   1.000  O
  H102     1.0000 0.20460  0.82300  0.42560  Biso   1.000  H
  O204     1.0000 0.24680  0.98930  0.46060  Biso   1.000  O
  O205     1.0000 0.68638  0.43533  0.48970  Biso   1.000  O
  H103     1.0000 0.70460  0.32300  0.42560  Biso   1.000  H
  O206     1.0000 0.74680  0.48930  0.46060  Biso   1.000  O
  O207     1.0000 0.68638  0.93533  0.98970  Biso   1.000  O
  H104     1.0000 0.70460  0.82300  0.92560  Biso   1.000  H
  O208     1.0000 0.74680  0.98930  0.96060  Biso   1.000  O
  O209     1.0000 0.18638  0.56467  0.01030  Biso   1.000  O
  H105     1.0000 0.20460  0.67700  0.07440  Biso   1.000  H
  O210     1.0000 0.24680  0.51070  0.03940  Biso   1.000  O
  O211     1.0000 0.18638  0.06467  0.51030  Biso   1.000  O
  H106     1.0000 0.20460  0.17700  0.57440  Biso   1.000  H
  O212     1.0000 0.24680  0.01070  0.53940  Biso   1.000  O
  O213     1.0000 0.68638  0.56467  0.51030  Biso   1.000  O
  H107     1.0000 0.70460  0.67700  0.57440  Biso   1.000  H
  O214     1.0000 0.74680  0.51070  0.53940  Biso   1.000  O
  O215     1.0000 0.68638  0.06467  0.01030  Biso   1.000  O
  H108     1.0000 0.70460  0.17700  0.07440  Biso   1.000  H
  O216     1.0000 0.74680  0.01070  0.03940  Biso   1.000  O
  O217     1.0000 0.81362  0.43533  0.01030  Biso   1.000  O
  H109     1.0000 0.79540  0.32300  0.07440  Biso   1.000  H
  O218     1.0000 0.75320  0.48930  0.03940  Biso   1.000  O
  O219     1.0000 0.81362  0.93533  0.51030  Biso   1.000  O
  H110     1.0000 0.79540  0.82300  0.57440  Biso   1.000  H
  O220     1.0000 0.75320  0.98930  0.53940  Biso   1.000  O
  O221     1.0000 0.31362  0.43533  0.51030  Biso   1.000  O
  H111     1.0000 0.29540  0.32300  0.57440  Biso   1.000  H
  O222     1.0000 0.25320  0.48930  0.53940  Biso   1.000  O
  O223     1.0000 0.31362  0.93533  0.01030  Biso   1.000  O
  H112     1.0000 0.29540  0.82300  0.07440  Biso   1.000  H
  O224     1.0000 0.25320  0.98930  0.03940  Biso   1.000  O
  O225     1.0000 0.98970  0.81362  0.56467  Biso   1.000  O
  H113     1.0000 0.92560  0.79540  0.67700  Biso   1.000  H
  O226     1.0000 0.96060  0.75320  0.51070  Biso   1.000  O
  O227     1.0000 0.98970  0.31362  0.06467  Biso   1.000  O
  H114     1.0000 0.92560  0.29540  0.17700  Biso   1.000  H
  O228     1.0000 0.96060  0.25320  0.01070  Biso   1.000  O
  O229     1.0000 0.48970  0.81362  0.06467  Biso   1.000  O
  H115     1.0000 0.42560  0.79540  0.17700  Biso   1.000  H
  O230     1.0000 0.46060  0.75320  0.01070  Biso   1.000  O
  O231     1.0000 0.48970  0.31362  0.56467  Biso   1.000  O
  H116     1.0000 0.42560  0.29540  0.67700  Biso   1.000  H
  O232     1.0000 0.46060  0.25320  0.51070  Biso   1.000  O
  O233     1.0000 0.98970  0.18638  0.43533  Biso   1.000  O
  H117     1.0000 0.92560  0.20460  0.32300  Biso   1.000  H
  O234     1.0000 0.96060  0.24680  0.48930  Biso   1.000  O
  O235     1.0000 0.98970  0.68638  0.93533  Biso   1.000  O
  H118     1.0000 0.92560  0.70460  0.82300  Biso   1.000  H
  O236     1.0000 0.96060  0.74680  0.98930  Biso   1.000  O
  O237     1.0000 0.48970  0.18638  0.93533  Biso   1.000  O
  H119     1.0000 0.42560  0.20460  0.82300  Biso   1.000  H
  O238     1.0000 0.46060  0.24680  0.98930  Biso   1.000  O
  O239     1.0000 0.48970  0.68638  0.43533  Biso   1.000  O
  H120     1.0000 0.42560  0.70460  0.32300  Biso   1.000  H
  O240     1.0000 0.46060  0.74680  0.48930  Biso   1.000  O
  O241     1.0000 0.01030  0.18638  0.56467  Biso   1.000  O
  H121     1.0000 0.07440  0.20460  0.67700  Biso   1.000  H
  O242     1.0000 0.03940  0.24680  0.51070  Biso   1.000  O
  O243     1.0000 0.01030  0.68638  0.06467  Biso   1.000  O
  H122     1.0000 0.07440  0.70460  0.17700  Biso   1.000  H
  O244     1.0000 0.03940  0.74680  0.01070  Biso   1.000  O
  O245     1.0000 0.51030  0.18638  0.06467  Biso   1.000  O
  H123     1.0000 0.57440  0.20460  0.17700  Biso   1.000  H
  O246     1.0000 0.53940  0.24680  0.01070  Biso   1.000  O
  O247     1.0000 0.51030  0.68638  0.56467  Biso   1.000  O
  H124     1.0000 0.57440  0.70460  0.67700  Biso   1.000  H
  O248     1.0000 0.53940  0.74680  0.51070  Biso   1.000  O
  O249     1.0000 0.01030  0.81362  0.43533  Biso   1.000  O
  H125     1.0000 0.07440  0.79540  0.32300  Biso   1.000  H
  O250     1.0000 0.03940  0.75320  0.48930  Biso   1.000  O
  O251     1.0000 0.01030  0.31362  0.93533  Biso   1.000  O
  H126     1.0000 0.07440  0.29540  0.82300  Biso   1.000  H
  O252     1.0000 0.03940  0.25320  0.98930  Biso   1.000  O
  O253     1.0000 0.51030  0.81362  0.93533  Biso   1.000  O
  H127     1.0000 0.57440  0.79540  0.82300  Biso   1.000  H
  O254     1.0000 0.53940  0.75320  0.98930  Biso   1.000  O
  O255     1.0000 0.51030  0.31362  0.43533  Biso   1.000  O
  H128     1.0000 0.57440  0.29540  0.32300  Biso   1.000  H
  O256     1.0000 0.53940  0.25320  0.48930  Biso   1.000  O
  O257     1.0000 0.56467  0.98970  0.81362  Biso   1.000  O
  H129     1.0000 0.67700  0.92560  0.79540  Biso   1.000  H
  O258     1.0000 0.51070  0.96060  0.75320  Biso   1.000  O
  O259     1.0000 0.56467  0.48970  0.31362  Biso   1.000  O
  H130     1.0000 0.67700  0.42560  0.29540  Biso   1.000  H
  O260     1.0000 0.51070  0.46060  0.25320  Biso   1.000  O
  O261     1.0000 0.06467  0.98970  0.31362  Biso   1.000  O
  H131     1.0000 0.17700  0.92560  0.29540  Biso   1.000  H
  O262     1.0000 0.01070  0.96060  0.25320  Biso   1.000  O
  O263     1.0000 0.06467  0.48970  0.81362  Biso   1.000  O
  H132     1.0000 0.17700  0.42560  0.79540  Biso   1.000  H
  O264     1.0000 0.01070  0.46060  0.75320  Biso   1.000  O
  O265     1.0000 0.43533  0.98970  0.18638  Biso   1.000  O
  H133     1.0000 0.32300  0.92560  0.20460  Biso   1.000  H
  O266     1.0000 0.48930  0.96060  0.24680  Biso   1.000  O
  O267     1.0000 0.43533  0.48970  0.68638  Biso   1.000  O
  H134     1.0000 0.32300  0.42560  0.70460  Biso   1.000  H
  O268     1.0000 0.48930  0.46060  0.74680  Biso   1.000  O
  O269     1.0000 0.93533  0.98970  0.68638  Biso   1.000  O
  H135     1.0000 0.82300  0.92560  0.70460  Biso   1.000  H
  O270     1.0000 0.98930  0.96060  0.74680  Biso   1.000  O
  O271     1.0000 0.93533  0.48970  0.18638  Biso   1.000  O
  H136     1.0000 0.82300  0.42560  0.20460  Biso   1.000  H
  O272     1.0000 0.98930  0.46060  0.24680  Biso   1.000  O
  O273     1.0000 0.56467  0.01030  0.18638  Biso   1.000  O
  H137     1.0000 0.67700  0.07440  0.20460  Biso   1.000  H
  O274     1.0000 0.51070  0.03940  0.24680  Biso   1.000  O
  O275     1.0000 0.56467  0.51030  0.68638  Biso   1.000  O
  H138     1.0000 0.67700  0.57440  0.70460  Biso   1.000  H
  O276     1.0000 0.51070  0.53940  0.74680  Biso   1.000  O
  O277     1.0000 0.06467  0.01030  0.68638  Biso   1.000  O
  H139     1.0000 0.17700  0.07440  0.70460  Biso   1.000  H
  O278     1.0000 0.01070  0.03940  0.74680  Biso   1.000  O
  O279     1.0000 0.06467  0.51030  0.18638  Biso   1.000  O
  H140     1.0000 0.17700  0.57440  0.20460  Biso   1.000  H
  O280     1.0000 0.01070  0.53940  0.24680  Biso   1.000  O
  O281     1.0000 0.43533  0.01030  0.81362  Biso   1.000  O
  H141     1.0000 0.32300  0.07440  0.79540  Biso   1.000  H
  O282     1.0000 0.48930  0.03940  0.75320  Biso   1.000  O
  O283     1.0000 0.43533  0.51030  0.31362  Biso   1.000  O
  H142     1.0000 0.32300  0.57440  0.29540  Biso   1.000  H
  O284     1.0000 0.48930  0.53940  0.25320  Biso   1.000  O
  O285     1.0000 0.93533  0.01030  0.31362  Biso   1.000  O
  H143     1.0000 0.82300  0.07440  0.29540  Biso   1.000  H
  O286     1.0000 0.98930  0.03940  0.25320  Biso   1.000  O
  O287     1.0000 0.93533  0.51030  0.81362  Biso   1.000  O
  H144     1.0000 0.82300  0.57440  0.79540  Biso   1.000  H
  O288     1.0000 0.98930  0.53940  0.75320  Biso   1.000  O
  O289     1.0000 0.56467  0.81362  0.01030  Biso   1.000  O
  H145     1.0000 0.67700  0.79540  0.07440  Biso   1.000  H
  O290     1.0000 0.51070  0.75320  0.03940  Biso   1.000  O
  O291     1.0000 0.56467  0.31362  0.51030  Biso   1.000  O
  H146     1.0000 0.67700  0.29540  0.57440  Biso   1.000  H
  O292     1.0000 0.51070  0.25320  0.53940  Biso   1.000  O
  O293     1.0000 0.06467  0.81362  0.51030  Biso   1.000  O
  H147     1.0000 0.17700  0.79540  0.57440  Biso   1.000  H
  O294     1.0000 0.01070  0.75320  0.53940  Biso   1.000  O
  O295     1.0000 0.06467  0.31362  0.01030  Biso   1.000  O
  H148     1.0000 0.17700  0.29540  0.07440  Biso   1.000  H
  O296     1.0000 0.01070  0.25320  0.03940  Biso   1.000  O
  O297     1.0000 0.43533  0.18638  0.01030  Biso   1.000  O
  H149     1.0000 0.32300  0.20460  0.07440  Biso   1.000  H
  O298     1.0000 0.48930  0.24680  0.03940  Biso   1.000  O
  O299     1.0000 0.43533  0.68638  0.51030  Biso   1.000  O
  H150     1.0000 0.32300  0.70460  0.57440  Biso   1.000  H
  O300     1.0000 0.48930  0.74680  0.53940  Biso   1.000  O
  O301     1.0000 0.93533  0.18638  0.51030  Biso   1.000  O
  H151     1.0000 0.82300  0.20460  0.57440  Biso   1.000  H
  O302     1.0000 0.98930  0.24680  0.53940  Biso   1.000  O
  O303     1.0000 0.93533  0.68638  0.01030  Biso   1.000  O
  H152     1.0000 0.82300  0.70460  0.07440  Biso   1.000  H
  O304     1.0000 0.98930  0.74680  0.03940  Biso   1.000  O
  O305     1.0000 0.56467  0.18638  0.98970  Biso   1.000  O
  H153     1.0000 0.67700  0.20460  0.92560  Biso   1.000  H
  O306     1.0000 0.51070  0.24680  0.96060  Biso   1.000  O
  O307     1.0000 0.56467  0.68638  0.48970  Biso   1.000  O
  H154     1.0000 0.67700  0.70460  0.42560  Biso   1.000  H
  O308     1.0000 0.51070  0.74680  0.46060  Biso   1.000  O
  O309     1.0000 0.06467  0.18638  0.48970  Biso   1.000  O
  H155     1.0000 0.17700  0.20460  0.42560  Biso   1.000  H
  O310     1.0000 0.01070  0.24680  0.46060  Biso   1.000  O
  O311     1.0000 0.06467  0.68638  0.98970  Biso   1.000  O
  H156     1.0000 0.17700  0.70460  0.92560  Biso   1.000  H
  O312     1.0000 0.01070  0.74680  0.96060  Biso   1.000  O
  O313     1.0000 0.43533  0.81362  0.98970  Biso   1.000  O
  H157     1.0000 0.32300  0.79540  0.92560  Biso   1.000  H
  O314     1.0000 0.48930  0.75320  0.96060  Biso   1.000  O
  O315     1.0000 0.43533  0.31362  0.48970  Biso   1.000  O
  H158     1.0000 0.32300  0.29540  0.42560  Biso   1.000  H
  O316     1.0000 0.48930  0.25320  0.46060  Biso   1.000  O
  O317     1.0000 0.93533  0.81362  0.48970  Biso   1.000  O
  H159     1.0000 0.82300  0.79540  0.42560  Biso   1.000  H
  O318     1.0000 0.98930  0.75320  0.46060  Biso   1.000  O
  O319     1.0000 0.93533  0.31362  0.98970  Biso   1.000  O
  H160     1.0000 0.82300  0.29540  0.92560  Biso   1.000  H
  O320     1.0000 0.98930  0.25320  0.96060  Biso   1.000  O
  O321     1.0000 0.81362  0.98970  0.43533  Biso   1.000  O
  H161     1.0000 0.79540  0.92560  0.32300  Biso   1.000  H
  O322     1.0000 0.75320  0.96060  0.48930  Biso   1.000  O
  O323     1.0000 0.81362  0.48970  0.93533  Biso   1.000  O
  H162     1.0000 0.79540  0.42560  0.82300  Biso   1.000  H
  O324     1.0000 0.75320  0.46060  0.98930  Biso   1.000  O
  O325     1.0000 0.31362  0.98970  0.93533  Biso   1.000  O
  H163     1.0000 0.29540  0.92560  0.82300  Biso   1.000  H
  O326     1.0000 0.25320  0.96060  0.98930  Biso   1.000  O
  O327     1.0000 0.31362  0.48970  0.43533  Biso   1.000  O
  H164     1.0000 0.29540  0.42560  0.32300  Biso   1.000  H
  O328     1.0000 0.25320  0.46060  0.48930  Biso   1.000  O
  O329     1.0000 0.18638  0.98970  0.56467  Biso   1.000  O
  H165     1.0000 0.20460  0.92560  0.67700  Biso   1.000  H
  O330     1.0000 0.24680  0.96060  0.51070  Biso   1.000  O
  O331     1.0000 0.18638  0.48970  0.06467  Biso   1.000  O
  H166     1.0000 0.20460  0.42560  0.17700  Biso   1.000  H
  O332     1.0000 0.24680  0.46060  0.01070  Biso   1.000  O
  O333     1.0000 0.68638  0.98970  0.06467  Biso   1.000  O
  H167     1.0000 0.70460  0.92560  0.17700  Biso   1.000  H
  O334     1.0000 0.74680  0.96060  0.01070  Biso   1.000  O
  O335     1.0000 0.68638  0.48970  0.56467  Biso   1.000  O
  H168     1.0000 0.70460  0.42560  0.67700  Biso   1.000  H
  O336     1.0000 0.74680  0.46060  0.51070  Biso   1.000  O
  O337     1.0000 0.18638  0.01030  0.43533  Biso   1.000  O
  H169     1.0000 0.20460  0.07440  0.32300  Biso   1.000  H
  O338     1.0000 0.24680  0.03940  0.48930  Biso   1.000  O
  O339     1.0000 0.18638  0.51030  0.93533  Biso   1.000  O
  H170     1.0000 0.20460  0.57440  0.82300  Biso   1.000  H
  O340     1.0000 0.24680  0.53940  0.98930  Biso   1.000  O
  O341     1.0000 0.68638  0.01030  0.93533  Biso   1.000  O
  H171     1.0000 0.70460  0.07440  0.82300  Biso   1.000  H
  O342     1.0000 0.74680  0.03940  0.98930  Biso   1.000  O
  O343     1.0000 0.68638  0.51030  0.43533  Biso   1.000  O
  H172     1.0000 0.70460  0.57440  0.32300  Biso   1.000  H
  O344     1.0000 0.74680  0.53940  0.48930  Biso   1.000  O
  O345     1.0000 0.81362  0.01030  0.56467  Biso   1.000  O
  H173     1.0000 0.79540  0.07440  0.67700  Biso   1.000  H
  O346     1.0000 0.75320  0.03940  0.51070  Biso   1.000  O
  O347     1.0000 0.81362  0.51030  0.06467  Biso   1.000  O
  H174     1.0000 0.79540  0.57440  0.17700  Biso   1.000  H
  O348     1.0000 0.75320  0.53940  0.01070  Biso   1.000  O
  O349     1.0000 0.31362  0.01030  0.06467  Biso   1.000  O
  H175     1.0000 0.29540  0.07440  0.17700  Biso   1.000  H
  O350     1.0000 0.25320  0.03940  0.01070  Biso   1.000  O
  O351     1.0000 0.31362  0.51030  0.56467  Biso   1.000  O
  H176     1.0000 0.29540  0.57440  0.67700  Biso   1.000  H
  O352     1.0000 0.25320  0.53940  0.51070  Biso   1.000  O
  O353     1.0000 0.98970  0.56467  0.18638  Biso   1.000  O
  H177     1.0000 0.92560  0.67700  0.20460  Biso   1.000  H
  O354     1.0000 0.96060  0.51070  0.24680  Biso   1.000  O
  O355     1.0000 0.98970  0.06467  0.68638  Biso   1.000  O
  H178     1.0000 0.92560  0.17700  0.70460  Biso   1.000  H
  O356     1.0000 0.96060  0.01070  0.74680  Biso   1.000  O
  O357     1.0000 0.48970  0.56467  0.68638  Biso   1.000  O
  H179     1.0000 0.42560  0.67700  0.70460  Biso   1.000  H
  O358     1.0000 0.46060  0.51070  0.74680  Biso   1.000  O
  O359     1.0000 0.48970  0.06467  0.18638  Biso   1.000  O
  H180     1.0000 0.42560  0.17700  0.20460  Biso   1.000  H
  O360     1.0000 0.46060  0.01070  0.24680  Biso   1.000  O
  O361     1.0000 0.98970  0.43533  0.81362  Biso   1.000  O
  H181     1.0000 0.92560  0.32300  0.79540  Biso   1.000  H
  O362     1.0000 0.96060  0.48930  0.75320  Biso   1.000  O
  O363     1.0000 0.98970  0.93533  0.31362  Biso   1.000  O
  H182     1.0000 0.92560  0.82300  0.29540  Biso   1.000  H
  O364     1.0000 0.96060  0.98930  0.25320  Biso   1.000  O
  O365     1.0000 0.48970  0.43533  0.31362  Biso   1.000  O
  H183     1.0000 0.42560  0.32300  0.29540  Biso   1.000  H
  O366     1.0000 0.46060  0.48930  0.25320  Biso   1.000  O
  O367     1.0000 0.48970  0.93533  0.81362  Biso   1.000  O
  H184     1.0000 0.42560  0.82300  0.79540  Biso   1.000  H
  O368     1.0000 0.46060  0.98930  0.75320  Biso   1.000  O
  O369     1.0000 0.01030  0.56467  0.81362  Biso   1.000  O
  H185     1.0000 0.07440  0.67700  0.79540  Biso   1.000  H
  O370     1.0000 0.03940  0.51070  0.75320  Biso   1.000  O
  O371     1.0000 0.01030  0.06467  0.31362  Biso   1.000  O
  H186     1.0000 0.07440  0.17700  0.29540  Biso   1.000  H
  O372     1.0000 0.03940  0.01070  0.25320  Biso   1.000  O
  O373     1.0000 0.51030  0.56467  0.31362  Biso   1.000  O
  H187     1.0000 0.57440  0.67700  0.29540  Biso   1.000  H
  O374     1.0000 0.53940  0.51070  0.25320  Biso   1.000  O
  O375     1.0000 0.51030  0.06467  0.81362  Biso   1.000  O
  H188     1.0000 0.57440  0.17700  0.79540  Biso   1.000  H
  O376     1.0000 0.53940  0.01070  0.75320  Biso   1.000  O
  O377     1.0000 0.01030  0.43533  0.18638  Biso   1.000  O
  H189     1.0000 0.07440  0.32300  0.20460  Biso   1.000  H
  O378     1.0000 0.03940  0.48930  0.24680  Biso   1.000  O
  O379     1.0000 0.01030  0.93533  0.68638  Biso   1.000  O
  H190     1.0000 0.07440  0.82300  0.70460  Biso   1.000  H
  O380     1.0000 0.03940  0.98930  0.74680  Biso   1.000  O
  O381     1.0000 0.51030  0.43533  0.68638  Biso   1.000  O
  H191     1.0000 0.57440  0.32300  0.70460  Biso   1.000  H
  O382     1.0000 0.53940  0.48930  0.74680  Biso   1.000  O
  O383     1.0000 0.51030  0.93533  0.18638  Biso   1.000  O
  H192     1.0000 0.57440  0.82300  0.20460  Biso   1.000  H
  O384     1.0000 0.53940  0.98930  0.24680  Biso   1.000  O
  Ni1      1.0000 0.13785  0.50000  0.00000  Biso   1.000  Ni
  O385     1.0000 0.18840  0.50000  0.00000  Biso   1.000  O
  Ni2      1.0000 0.63785  0.50000  0.50000  Biso   1.000  Ni
  O386     1.0000 0.68840  0.50000  0.50000  Biso   1.000  O
  Ni3      1.0000 0.86215  0.50000  0.00000  Biso   1.000  Ni
  O387     1.0000 0.81160  0.50000  0.00000  Biso   1.000  O
  Ni4      1.0000 0.86215  0.00000  0.50000  Biso   1.000  Ni
  O388     1.0000 0.81160  0.00000  0.50000  Biso   1.000  O
  Ni5      1.0000 0.36215  0.50000  0.50000  Biso   1.000  Ni
  O389     1.0000 0.31160  0.50000  0.50000  Biso   1.000  O
  Ni6      1.0000 0.63785  0.00000  0.00000  Biso   1.000  Ni
  O390     1.0000 0.68840  0.00000  0.00000  Biso   1.000  O
  Ni7      1.0000 0.00000  0.13785  0.50000  Biso   1.000  Ni
  O391     1.0000 0.00000  0.18840  0.50000  Biso   1.000  O
  Ni8      1.0000 0.00000  0.63785  0.00000  Biso   1.000  Ni
  O392     1.0000 0.00000  0.68840  0.00000  Biso   1.000  O
  Ni9      1.0000 0.50000  0.63785  0.50000  Biso   1.000  Ni
  O393     1.0000 0.50000  0.68840  0.50000  Biso   1.000  O
  Ni10     1.0000 0.00000  0.86215  0.50000  Biso   1.000  Ni
  O394     1.0000 0.00000  0.81160  0.50000  Biso   1.000  O
  Ni11     1.0000 0.00000  0.36215  0.00000  Biso   1.000  Ni
  O395     1.0000 0.00000  0.31160  0.00000  Biso   1.000  O
  Ni12     1.0000 0.50000  0.13785  0.00000  Biso   1.000  Ni
  O396     1.0000 0.50000  0.18840  0.00000  Biso   1.000  O
  Ni13     1.0000 0.50000  0.00000  0.13785  Biso   1.000  Ni
  O397     1.0000 0.50000  0.00000  0.18840  Biso   1.000  O
  Ni14     1.0000 0.50000  0.50000  0.63785  Biso   1.000  Ni
  O398     1.0000 0.50000  0.50000  0.68840  Biso   1.000  O
  Ni15     1.0000 0.50000  0.00000  0.86215  Biso   1.000  Ni
  O399     1.0000 0.50000  0.00000  0.81160  Biso   1.000  O
  Ni16     1.0000 0.50000  0.50000  0.36215  Biso   1.000  Ni
  O400     1.0000 0.50000  0.50000  0.31160  Biso   1.000  O
  Ni17     1.0000 0.00000  0.50000  0.86215  Biso   1.000  Ni
  O401     1.0000 0.00000  0.50000  0.81160  Biso   1.000  O
  Ni18     1.0000 0.00000  0.00000  0.63785  Biso   1.000  Ni
  O402     1.0000 0.00000  0.00000  0.68840  Biso   1.000  O
  Ni19     1.0000 0.50000  0.86215  0.00000  Biso   1.000  Ni
  O403     1.0000 0.50000  0.81160  0.00000  Biso   1.000  O
  Ni20     1.0000 0.50000  0.36215  0.50000  Biso   1.000  Ni
  O404     1.0000 0.50000  0.31160  0.50000  Biso   1.000  O
  Ni21     1.0000 0.13785  0.00000  0.50000  Biso   1.000  Ni
  O405     1.0000 0.18840  0.00000  0.50000  Biso   1.000  O
  Ni22     1.0000 0.36215  0.00000  0.00000  Biso   1.000  Ni
  O406     1.0000 0.31160  0.00000  0.00000  Biso   1.000  O
  Ni23     1.0000 0.00000  0.00000  0.36215  Biso   1.000  Ni
  O407     1.0000 0.00000  0.00000  0.31160  Biso   1.000  O
  Ni24     1.0000 0.00000  0.50000  0.13785  Biso   1.000  Ni
  O408     1.0000 0.00000  0.50000  0.18840  Biso   1.000  O
  O409     1.0000 0.13550  0.44979  0.00000  Biso   1.000  O
  C1       1.0000 0.17144  0.37011  0.00000  Biso   1.000  C
  H193     1.0000 0.19380  0.37610  0.00000  Biso   1.000  H
  C2       1.0000 0.14746  0.39410  0.00000  Biso   1.000  C
  C3       1.0000 0.15693  0.42959  0.00000  Biso   1.000  C
  O410     1.0000 0.13550  0.94979  0.50000  Biso   1.000  O
  C4       1.0000 0.17144  0.87011  0.50000  Biso   1.000  C
  H194     1.0000 0.19380  0.87610  0.50000  Biso   1.000  H
  C5       1.0000 0.14746  0.89410  0.50000  Biso   1.000  C
  C6       1.0000 0.15693  0.92959  0.50000  Biso   1.000  C
  O411     1.0000 0.63550  0.44979  0.50000  Biso   1.000  O
  C7       1.0000 0.67144  0.37011  0.50000  Biso   1.000  C
  H195     1.0000 0.69380  0.37610  0.50000  Biso   1.000  H
  C8       1.0000 0.64746  0.39410  0.50000  Biso   1.000  C
  C9       1.0000 0.65693  0.42959  0.50000  Biso   1.000  C
  O412     1.0000 0.63550  0.94979  0.00000  Biso   1.000  O
  C10      1.0000 0.67144  0.87011  0.00000  Biso   1.000  C
  H196     1.0000 0.69380  0.87610  0.00000  Biso   1.000  H
  C11      1.0000 0.64746  0.89410  0.00000  Biso   1.000  C
  C12      1.0000 0.65693  0.92959  0.00000  Biso   1.000  C
  O413     1.0000 0.86450  0.55021  0.00000  Biso   1.000  O
  C13      1.0000 0.82856  0.62989  0.00000  Biso   1.000  C
  H197     1.0000 0.80620  0.62390  0.00000  Biso   1.000  H
  C14      1.0000 0.85254  0.60590  0.00000  Biso   1.000  C
  C15      1.0000 0.84307  0.57041  0.00000  Biso   1.000  C
  O414     1.0000 0.86450  0.05021  0.50000  Biso   1.000  O
  C16      1.0000 0.82856  0.12989  0.50000  Biso   1.000  C
  H198     1.0000 0.80620  0.12390  0.50000  Biso   1.000  H
  C17      1.0000 0.85254  0.10590  0.50000  Biso   1.000  C
  C18      1.0000 0.84307  0.07041  0.50000  Biso   1.000  C
  O415     1.0000 0.36450  0.55021  0.50000  Biso   1.000  O
  C19      1.0000 0.32856  0.62989  0.50000  Biso   1.000  C
  H199     1.0000 0.30620  0.62390  0.50000  Biso   1.000  H
  C20      1.0000 0.35254  0.60590  0.50000  Biso   1.000  C
  C21      1.0000 0.34307  0.57041  0.50000  Biso   1.000  C
  O416     1.0000 0.36450  0.05021  0.00000  Biso   1.000  O
  C22      1.0000 0.32856  0.12989  0.00000  Biso   1.000  C
  H200     1.0000 0.30620  0.12390  0.00000  Biso   1.000  H
  C23      1.0000 0.35254  0.10590  0.00000  Biso   1.000  C
  C24      1.0000 0.34307  0.07041  0.00000  Biso   1.000  C
  O417     1.0000 0.86450  0.44979  0.00000  Biso   1.000  O
  C25      1.0000 0.82856  0.37011  0.00000  Biso   1.000  C
  H201     1.0000 0.80620  0.37610  0.00000  Biso   1.000  H
  C26      1.0000 0.85254  0.39410  0.00000  Biso   1.000  C
  C27      1.0000 0.84307  0.42959  0.00000  Biso   1.000  C
  O418     1.0000 0.86450  0.94979  0.50000  Biso   1.000  O
  C28      1.0000 0.82856  0.87011  0.50000  Biso   1.000  C
  H202     1.0000 0.80620  0.87610  0.50000  Biso   1.000  H
  C29      1.0000 0.85254  0.89410  0.50000  Biso   1.000  C
  C30      1.0000 0.84307  0.92959  0.50000  Biso   1.000  C
  O419     1.0000 0.36450  0.44979  0.50000  Biso   1.000  O
  C31      1.0000 0.32856  0.37011  0.50000  Biso   1.000  C
  H203     1.0000 0.30620  0.37610  0.50000  Biso   1.000  H
  C32      1.0000 0.35254  0.39410  0.50000  Biso   1.000  C
  C33      1.0000 0.34307  0.42959  0.50000  Biso   1.000  C
  O420     1.0000 0.36450  0.94979  0.00000  Biso   1.000  O
  C34      1.0000 0.32856  0.87011  0.00000  Biso   1.000  C
  H204     1.0000 0.30620  0.87610  0.00000  Biso   1.000  H
  C35      1.0000 0.35254  0.89410  0.00000  Biso   1.000  C
  C36      1.0000 0.34307  0.92959  0.00000  Biso   1.000  C
  O421     1.0000 0.13550  0.55021  0.00000  Biso   1.000  O
  C37      1.0000 0.17144  0.62989  0.00000  Biso   1.000  C
  H205     1.0000 0.19380  0.62390  0.00000  Biso   1.000  H
  C38      1.0000 0.14746  0.60590  0.00000  Biso   1.000  C
  C39      1.0000 0.15693  0.57041  0.00000  Biso   1.000  C
  O422     1.0000 0.13550  0.05021  0.50000  Biso   1.000  O
  C40      1.0000 0.17144  0.12989  0.50000  Biso   1.000  C
  H206     1.0000 0.19380  0.12390  0.50000  Biso   1.000  H
  C41      1.0000 0.14746  0.10590  0.50000  Biso   1.000  C
  C42      1.0000 0.15693  0.07041  0.50000  Biso   1.000  C
  O423     1.0000 0.63550  0.55021  0.50000  Biso   1.000  O
  C43      1.0000 0.67144  0.62989  0.50000  Biso   1.000  C
  H207     1.0000 0.69380  0.62390  0.50000  Biso   1.000  H
  C44      1.0000 0.64746  0.60590  0.50000  Biso   1.000  C
  C45      1.0000 0.65693  0.57041  0.50000  Biso   1.000  C
  O424     1.0000 0.63550  0.05021  0.00000  Biso   1.000  O
  C46      1.0000 0.67144  0.12989  0.00000  Biso   1.000  C
  H208     1.0000 0.69380  0.12390  0.00000  Biso   1.000  H
  C47      1.0000 0.64746  0.10590  0.00000  Biso   1.000  C
  C48      1.0000 0.65693  0.07041  0.00000  Biso   1.000  C
  O425     1.0000 0.00000  0.13550  0.44979  Biso   1.000  O
  C49      1.0000 0.00000  0.17144  0.37011  Biso   1.000  C
  H209     1.0000 0.00000  0.19380  0.37610  Biso   1.000  H
  C50      1.0000 0.00000  0.14746  0.39410  Biso   1.000  C
  C51      1.0000 0.00000  0.15693  0.42959  Biso   1.000  C
  O426     1.0000 0.00000  0.63550  0.94979  Biso   1.000  O
  C52      1.0000 0.00000  0.67144  0.87011  Biso   1.000  C
  H210     1.0000 0.00000  0.69380  0.87610  Biso   1.000  H
  C53      1.0000 0.00000  0.64746  0.89410  Biso   1.000  C
  C54      1.0000 0.00000  0.65693  0.92959  Biso   1.000  C
  O427     1.0000 0.50000  0.13550  0.94979  Biso   1.000  O
  C55      1.0000 0.50000  0.17144  0.87011  Biso   1.000  C
  H211     1.0000 0.50000  0.19380  0.87610  Biso   1.000  H
  C56      1.0000 0.50000  0.14746  0.89410  Biso   1.000  C
  C57      1.0000 0.50000  0.15693  0.92959  Biso   1.000  C
  O428     1.0000 0.50000  0.63550  0.44979  Biso   1.000  O
  C58      1.0000 0.50000  0.67144  0.37011  Biso   1.000  C
  H212     1.0000 0.50000  0.69380  0.37610  Biso   1.000  H
  C59      1.0000 0.50000  0.64746  0.39410  Biso   1.000  C
  C60      1.0000 0.50000  0.65693  0.42959  Biso   1.000  C
  O429     1.0000 0.00000  0.86450  0.55021  Biso   1.000  O
  C61      1.0000 0.00000  0.82856  0.62989  Biso   1.000  C
  H213     1.0000 0.00000  0.80620  0.62390  Biso   1.000  H
  C62      1.0000 0.00000  0.85254  0.60590  Biso   1.000  C
  C63      1.0000 0.00000  0.84307  0.57041  Biso   1.000  C
  O430     1.0000 0.00000  0.36450  0.05021  Biso   1.000  O
  C64      1.0000 0.00000  0.32856  0.12989  Biso   1.000  C
  H214     1.0000 0.00000  0.30620  0.12390  Biso   1.000  H
  C65      1.0000 0.00000  0.35254  0.10590  Biso   1.000  C
  C66      1.0000 0.00000  0.34307  0.07041  Biso   1.000  C
  O431     1.0000 0.50000  0.86450  0.05021  Biso   1.000  O
  C67      1.0000 0.50000  0.82856  0.12989  Biso   1.000  C
  H215     1.0000 0.50000  0.80620  0.12390  Biso   1.000  H
  C68      1.0000 0.50000  0.85254  0.10590  Biso   1.000  C
  C69      1.0000 0.50000  0.84307  0.07041  Biso   1.000  C
  O432     1.0000 0.50000  0.36450  0.55021  Biso   1.000  O
  C70      1.0000 0.50000  0.32856  0.62989  Biso   1.000  C
  H216     1.0000 0.50000  0.30620  0.62390  Biso   1.000  H
  C71      1.0000 0.50000  0.35254  0.60590  Biso   1.000  C
  C72      1.0000 0.50000  0.34307  0.57041  Biso   1.000  C
  O433     1.0000 0.00000  0.86450  0.44979  Biso   1.000  O
  C73      1.0000 0.00000  0.82856  0.37011  Biso   1.000  C
  H217     1.0000 0.00000  0.80620  0.37610  Biso   1.000  H
  C74      1.0000 0.00000  0.85254  0.39410  Biso   1.000  C
  C75      1.0000 0.00000  0.84307  0.42959  Biso   1.000  C
  O434     1.0000 0.00000  0.36450  0.94979  Biso   1.000  O
  C76      1.0000 0.00000  0.32856  0.87011  Biso   1.000  C
  H218     1.0000 0.00000  0.30620  0.87610  Biso   1.000  H
  C77      1.0000 0.00000  0.35254  0.89410  Biso   1.000  C
  C78      1.0000 0.00000  0.34307  0.92959  Biso   1.000  C
  O435     1.0000 0.50000  0.86450  0.94979  Biso   1.000  O
  C79      1.0000 0.50000  0.82856  0.87011  Biso   1.000  C
  H219     1.0000 0.50000  0.80620  0.87610  Biso   1.000  H
  C80      1.0000 0.50000  0.85254  0.89410  Biso   1.000  C
  C81      1.0000 0.50000  0.84307  0.92959  Biso   1.000  C
  O436     1.0000 0.50000  0.36450  0.44979  Biso   1.000  O
  C82      1.0000 0.50000  0.32856  0.37011  Biso   1.000  C
  H220     1.0000 0.50000  0.30620  0.37610  Biso   1.000  H
  C83      1.0000 0.50000  0.35254  0.39410  Biso   1.000  C
  C84      1.0000 0.50000  0.34307  0.42959  Biso   1.000  C
  O437     1.0000 0.00000  0.13550  0.55021  Biso   1.000  O
  C85      1.0000 0.00000  0.17144  0.62989  Biso   1.000  C
  H221     1.0000 0.00000  0.19380  0.62390  Biso   1.000  H
  C86      1.0000 0.00000  0.14746  0.60590  Biso   1.000  C
  C87      1.0000 0.00000  0.15693  0.57041  Biso   1.000  C
  O438     1.0000 0.00000  0.63550  0.05021  Biso   1.000  O
  C88      1.0000 0.00000  0.67144  0.12989  Biso   1.000  C
  H222     1.0000 0.00000  0.69380  0.12390  Biso   1.000  H
  C89      1.0000 0.00000  0.64746  0.10590  Biso   1.000  C
  C90      1.0000 0.00000  0.65693  0.07041  Biso   1.000  C
  O439     1.0000 0.50000  0.13550  0.05021  Biso   1.000  O
  C91      1.0000 0.50000  0.17144  0.12989  Biso   1.000  C
  H223     1.0000 0.50000  0.19380  0.12390  Biso   1.000  H
  C92      1.0000 0.50000  0.14746  0.10590  Biso   1.000  C
  C93      1.0000 0.50000  0.15693  0.07041  Biso   1.000  C
  O440     1.0000 0.50000  0.63550  0.55021  Biso   1.000  O
  C94      1.0000 0.50000  0.67144  0.62989  Biso   1.000  C
  H224     1.0000 0.50000  0.69380  0.62390  Biso   1.000  H
  C95      1.0000 0.50000  0.64746  0.60590  Biso   1.000  C
  C96      1.0000 0.50000  0.65693  0.57041  Biso   1.000  C
  O441     1.0000 0.44979  0.00000  0.13550  Biso   1.000  O
  C97      1.0000 0.37011  0.00000  0.17144  Biso   1.000  C
  H225     1.0000 0.37610  0.00000  0.19380  Biso   1.000  H
  C98      1.0000 0.39410  0.00000  0.14746  Biso   1.000  C
  C99      1.0000 0.42959  0.00000  0.15693  Biso   1.000  C
  O442     1.0000 0.44979  0.50000  0.63550  Biso   1.000  O
  C100     1.0000 0.37011  0.50000  0.67144  Biso   1.000  C
  H226     1.0000 0.37610  0.50000  0.69380  Biso   1.000  H
  C101     1.0000 0.39410  0.50000  0.64746  Biso   1.000  C
  C102     1.0000 0.42959  0.50000  0.65693  Biso   1.000  C
  O443     1.0000 0.94979  0.00000  0.63550  Biso   1.000  O
  C103     1.0000 0.87011  0.00000  0.67144  Biso   1.000  C
  H227     1.0000 0.87610  0.00000  0.69380  Biso   1.000  H
  C104     1.0000 0.89410  0.00000  0.64746  Biso   1.000  C
  C105     1.0000 0.92959  0.00000  0.65693  Biso   1.000  C
  O444     1.0000 0.94979  0.50000  0.13550  Biso   1.000  O
  C106     1.0000 0.87011  0.50000  0.17144  Biso   1.000  C
  H228     1.0000 0.87610  0.50000  0.19380  Biso   1.000  H
  C107     1.0000 0.89410  0.50000  0.14746  Biso   1.000  C
  C108     1.0000 0.92959  0.50000  0.15693  Biso   1.000  C
  O445     1.0000 0.55021  0.00000  0.86450  Biso   1.000  O
  C109     1.0000 0.62989  0.00000  0.82856  Biso   1.000  C
  H229     1.0000 0.62390  0.00000  0.80620  Biso   1.000  H
  C110     1.0000 0.60590  0.00000  0.85254  Biso   1.000  C
  C111     1.0000 0.57041  0.00000  0.84307  Biso   1.000  C
  O446     1.0000 0.55021  0.50000  0.36450  Biso   1.000  O
  C112     1.0000 0.62989  0.50000  0.32856  Biso   1.000  C
  H230     1.0000 0.62390  0.50000  0.30620  Biso   1.000  H
  C113     1.0000 0.60590  0.50000  0.35254  Biso   1.000  C
  C114     1.0000 0.57041  0.50000  0.34307  Biso   1.000  C
  O447     1.0000 0.05021  0.00000  0.36450  Biso   1.000  O
  C115     1.0000 0.12989  0.00000  0.32856  Biso   1.000  C
  H231     1.0000 0.12390  0.00000  0.30620  Biso   1.000  H
  C116     1.0000 0.10590  0.00000  0.35254  Biso   1.000  C
  C117     1.0000 0.07041  0.00000  0.34307  Biso   1.000  C
  O448     1.0000 0.05021  0.50000  0.86450  Biso   1.000  O
  C118     1.0000 0.12989  0.50000  0.82856  Biso   1.000  C
  H232     1.0000 0.12390  0.50000  0.80620  Biso   1.000  H
  C119     1.0000 0.10590  0.50000  0.85254  Biso   1.000  C
  C120     1.0000 0.07041  0.50000  0.84307  Biso   1.000  C
  O449     1.0000 0.44979  0.00000  0.86450  Biso   1.000  O
  C121     1.0000 0.37011  0.00000  0.82856  Biso   1.000  C
  H233     1.0000 0.37610  0.00000  0.80620  Biso   1.000  H
  C122     1.0000 0.39410  0.00000  0.85254  Biso   1.000  C
  C123     1.0000 0.42959  0.00000  0.84307  Biso   1.000  C
  O450     1.0000 0.44979  0.50000  0.36450  Biso   1.000  O
  C124     1.0000 0.37011  0.50000  0.32856  Biso   1.000  C
  H234     1.0000 0.37610  0.50000  0.30620  Biso   1.000  H
  C125     1.0000 0.39410  0.50000  0.35254  Biso   1.000  C
  C126     1.0000 0.42959  0.50000  0.34307  Biso   1.000  C
  O451     1.0000 0.94979  0.00000  0.36450  Biso   1.000  O
  C127     1.0000 0.87011  0.00000  0.32856  Biso   1.000  C
  H235     1.0000 0.87610  0.00000  0.30620  Biso   1.000  H
  C128     1.0000 0.89410  0.00000  0.35254  Biso   1.000  C
  C129     1.0000 0.92959  0.00000  0.34307  Biso   1.000  C
  O452     1.0000 0.94979  0.50000  0.86450  Biso   1.000  O
  C130     1.0000 0.87011  0.50000  0.82856  Biso   1.000  C
  H236     1.0000 0.87610  0.50000  0.80620  Biso   1.000  H
  C131     1.0000 0.89410  0.50000  0.85254  Biso   1.000  C
  C132     1.0000 0.92959  0.50000  0.84307  Biso   1.000  C
  O453     1.0000 0.55021  0.00000  0.13550  Biso   1.000  O
  C133     1.0000 0.62989  0.00000  0.17144  Biso   1.000  C
  H237     1.0000 0.62390  0.00000  0.19380  Biso   1.000  H
  C134     1.0000 0.60590  0.00000  0.14746  Biso   1.000  C
  C135     1.0000 0.57041  0.00000  0.15693  Biso   1.000  C
  O454     1.0000 0.55021  0.50000  0.63550  Biso   1.000  O
  C136     1.0000 0.62989  0.50000  0.67144  Biso   1.000  C
  H238     1.0000 0.62390  0.50000  0.69380  Biso   1.000  H
  C137     1.0000 0.60590  0.50000  0.64746  Biso   1.000  C
  C138     1.0000 0.57041  0.50000  0.65693  Biso   1.000  C
  O455     1.0000 0.05021  0.00000  0.63550  Biso   1.000  O
  C139     1.0000 0.12989  0.00000  0.67144  Biso   1.000  C
  H239     1.0000 0.12390  0.00000  0.69380  Biso   1.000  H
  C140     1.0000 0.10590  0.00000  0.64746  Biso   1.000  C
  C141     1.0000 0.07041  0.00000  0.65693  Biso   1.000  C
  O456     1.0000 0.05021  0.50000  0.13550  Biso   1.000  O
  C142     1.0000 0.12989  0.50000  0.17144  Biso   1.000  C
  H240     1.0000 0.12390  0.50000  0.19380  Biso   1.000  H
  C143     1.0000 0.10590  0.50000  0.14746  Biso   1.000  C
  C144     1.0000 0.07041  0.50000  0.15693  Biso   1.000  C
  O457     1.0000 0.44979  0.13550  0.00000  Biso   1.000  O
  C145     1.0000 0.37011  0.17144  0.00000  Biso   1.000  C
  H241     1.0000 0.37610  0.19380  0.00000  Biso   1.000  H
  C146     1.0000 0.39410  0.14746  0.00000  Biso   1.000  C
  C147     1.0000 0.42959  0.15693  0.00000  Biso   1.000  C
  O458     1.0000 0.44979  0.63550  0.50000  Biso   1.000  O
  C148     1.0000 0.37011  0.67144  0.50000  Biso   1.000  C
  H242     1.0000 0.37610  0.69380  0.50000  Biso   1.000  H
  C149     1.0000 0.39410  0.64746  0.50000  Biso   1.000  C
  C150     1.0000 0.42959  0.65693  0.50000  Biso   1.000  C
  O459     1.0000 0.94979  0.13550  0.50000  Biso   1.000  O
  C151     1.0000 0.87011  0.17144  0.50000  Biso   1.000  C
  H243     1.0000 0.87610  0.19380  0.50000  Biso   1.000  H
  C152     1.0000 0.89410  0.14746  0.50000  Biso   1.000  C
  C153     1.0000 0.92959  0.15693  0.50000  Biso   1.000  C
  O460     1.0000 0.94979  0.63550  0.00000  Biso   1.000  O
  C154     1.0000 0.87011  0.67144  0.00000  Biso   1.000  C
  H244     1.0000 0.87610  0.69380  0.00000  Biso   1.000  H
  C155     1.0000 0.89410  0.64746  0.00000  Biso   1.000  C
  C156     1.0000 0.92959  0.65693  0.00000  Biso   1.000  C
  O461     1.0000 0.55021  0.86450  0.00000  Biso   1.000  O
  C157     1.0000 0.62989  0.82856  0.00000  Biso   1.000  C
  H245     1.0000 0.62390  0.80620  0.00000  Biso   1.000  H
  C158     1.0000 0.60590  0.85254  0.00000  Biso   1.000  C
  C159     1.0000 0.57041  0.84307  0.00000  Biso   1.000  C
  O462     1.0000 0.55021  0.36450  0.50000  Biso   1.000  O
  C160     1.0000 0.62989  0.32856  0.50000  Biso   1.000  C
  H246     1.0000 0.62390  0.30620  0.50000  Biso   1.000  H
  C161     1.0000 0.60590  0.35254  0.50000  Biso   1.000  C
  C162     1.0000 0.57041  0.34307  0.50000  Biso   1.000  C
  O463     1.0000 0.05021  0.86450  0.50000  Biso   1.000  O
  C163     1.0000 0.12989  0.82856  0.50000  Biso   1.000  C
  H247     1.0000 0.12390  0.80620  0.50000  Biso   1.000  H
  C164     1.0000 0.10590  0.85254  0.50000  Biso   1.000  C
  C165     1.0000 0.07041  0.84307  0.50000  Biso   1.000  C
  O464     1.0000 0.05021  0.36450  0.00000  Biso   1.000  O
  C166     1.0000 0.12989  0.32856  0.00000  Biso   1.000  C
  H248     1.0000 0.12390  0.30620  0.00000  Biso   1.000  H
  C167     1.0000 0.10590  0.35254  0.00000  Biso   1.000  C
  C168     1.0000 0.07041  0.34307  0.00000  Biso   1.000  C
  O465     1.0000 0.44979  0.86450  0.00000  Biso   1.000  O
  C169     1.0000 0.37011  0.82856  0.00000  Biso   1.000  C
  H249     1.0000 0.37610  0.80620  0.00000  Biso   1.000  H
  C170     1.0000 0.39410  0.85254  0.00000  Biso   1.000  C
  C171     1.0000 0.42959  0.84307  0.00000  Biso   1.000  C
  O466     1.0000 0.44979  0.36450  0.50000  Biso   1.000  O
  C172     1.0000 0.37011  0.32856  0.50000  Biso   1.000  C
  H250     1.0000 0.37610  0.30620  0.50000  Biso   1.000  H
  C173     1.0000 0.39410  0.35254  0.50000  Biso   1.000  C
  C174     1.0000 0.42959  0.34307  0.50000  Biso   1.000  C
  O467     1.0000 0.94979  0.86450  0.50000  Biso   1.000  O
  C175     1.0000 0.87011  0.82856  0.50000  Biso   1.000  C
  H251     1.0000 0.87610  0.80620  0.50000  Biso   1.000  H
  C176     1.0000 0.89410  0.85254  0.50000  Biso   1.000  C
  C177     1.0000 0.92959  0.84307  0.50000  Biso   1.000  C
  O468     1.0000 0.94979  0.36450  0.00000  Biso   1.000  O
  C178     1.0000 0.87011  0.32856  0.00000  Biso   1.000  C
  H252     1.0000 0.87610  0.30620  0.00000  Biso   1.000  H
  C179     1.0000 0.89410  0.35254  0.00000  Biso   1.000  C
  C180     1.0000 0.92959  0.34307  0.00000  Biso   1.000  C
  O469     1.0000 0.55021  0.13550  0.00000  Biso   1.000  O
  C181     1.0000 0.62989  0.17144  0.00000  Biso   1.000  C
  H253     1.0000 0.62390  0.19380  0.00000  Biso   1.000  H
  C182     1.0000 0.60590  0.14746  0.00000  Biso   1.000  C
  C183     1.0000 0.57041  0.15693  0.00000  Biso   1.000  C
  O470     1.0000 0.55021  0.63550  0.50000  Biso   1.000  O
  C184     1.0000 0.62989  0.67144  0.50000  Biso   1.000  C
  H254     1.0000 0.62390  0.69380  0.50000  Biso   1.000  H
  C185     1.0000 0.60590  0.64746  0.50000  Biso   1.000  C
  C186     1.0000 0.57041  0.65693  0.50000  Biso   1.000  C
  O471     1.0000 0.05021  0.13550  0.50000  Biso   1.000  O
  C187     1.0000 0.12989  0.17144  0.50000  Biso   1.000  C
  H255     1.0000 0.12390  0.19380  0.50000  Biso   1.000  H
  C188     1.0000 0.10590  0.14746  0.50000  Biso   1.000  C
  C189     1.0000 0.07041  0.15693  0.50000  Biso   1.000  C
  O472     1.0000 0.05021  0.63550  0.00000  Biso   1.000  O
  C190     1.0000 0.12989  0.67144  0.00000  Biso   1.000  C
  H256     1.0000 0.12390  0.69380  0.00000  Biso   1.000  H
  C191     1.0000 0.10590  0.64746  0.00000  Biso   1.000  C
  C192     1.0000 0.07041  0.65693  0.00000  Biso   1.000  C
  O473     1.0000 0.13550  0.00000  0.55021  Biso   1.000  O
  C193     1.0000 0.17144  0.00000  0.62989  Biso   1.000  C
  H257     1.0000 0.19380  0.00000  0.62390  Biso   1.000  H
  C194     1.0000 0.14746  0.00000  0.60590  Biso   1.000  C
  C195     1.0000 0.15693  0.00000  0.57041  Biso   1.000  C
  O474     1.0000 0.13550  0.50000  0.05021  Biso   1.000  O
  C196     1.0000 0.17144  0.50000  0.12989  Biso   1.000  C
  H258     1.0000 0.19380  0.50000  0.12390  Biso   1.000  H
  C197     1.0000 0.14746  0.50000  0.10590  Biso   1.000  C
  C198     1.0000 0.15693  0.50000  0.07041  Biso   1.000  C
  O475     1.0000 0.63550  0.00000  0.05021  Biso   1.000  O
  C199     1.0000 0.67144  0.00000  0.12989  Biso   1.000  C
  H259     1.0000 0.69380  0.00000  0.12390  Biso   1.000  H
  C200     1.0000 0.64746  0.00000  0.10590  Biso   1.000  C
  C201     1.0000 0.65693  0.00000  0.07041  Biso   1.000  C
  O476     1.0000 0.63550  0.50000  0.55021  Biso   1.000  O
  C202     1.0000 0.67144  0.50000  0.62989  Biso   1.000  C
  H260     1.0000 0.69380  0.50000  0.62390  Biso   1.000  H
  C203     1.0000 0.64746  0.50000  0.60590  Biso   1.000  C
  C204     1.0000 0.65693  0.50000  0.57041  Biso   1.000  C
  O477     1.0000 0.86450  0.00000  0.44979  Biso   1.000  O
  C205     1.0000 0.82856  0.00000  0.37011  Biso   1.000  C
  H261     1.0000 0.80620  0.00000  0.37610  Biso   1.000  H
  C206     1.0000 0.85254  0.00000  0.39410  Biso   1.000  C
  C207     1.0000 0.84307  0.00000  0.42959  Biso   1.000  C
  O478     1.0000 0.86450  0.50000  0.94979  Biso   1.000  O
  C208     1.0000 0.82856  0.50000  0.87011  Biso   1.000  C
  H262     1.0000 0.80620  0.50000  0.87610  Biso   1.000  H
  C209     1.0000 0.85254  0.50000  0.89410  Biso   1.000  C
  C210     1.0000 0.84307  0.50000  0.92959  Biso   1.000  C
  O479     1.0000 0.36450  0.00000  0.94979  Biso   1.000  O
  C211     1.0000 0.32856  0.00000  0.87011  Biso   1.000  C
  H263     1.0000 0.30620  0.00000  0.87610  Biso   1.000  H
  C212     1.0000 0.35254  0.00000  0.89410  Biso   1.000  C
  C213     1.0000 0.34307  0.00000  0.92959  Biso   1.000  C
  O480     1.0000 0.36450  0.50000  0.44979  Biso   1.000  O
  C214     1.0000 0.32856  0.50000  0.37011  Biso   1.000  C
  H264     1.0000 0.30620  0.50000  0.37610  Biso   1.000  H
  C215     1.0000 0.35254  0.50000  0.39410  Biso   1.000  C
  C216     1.0000 0.34307  0.50000  0.42959  Biso   1.000  C
  O481     1.0000 0.86450  0.00000  0.55021  Biso   1.000  O
  C217     1.0000 0.82856  0.00000  0.62989  Biso   1.000  C
  H265     1.0000 0.80620  0.00000  0.62390  Biso   1.000  H
  C218     1.0000 0.85254  0.00000  0.60590  Biso   1.000  C
  C219     1.0000 0.84307  0.00000  0.57041  Biso   1.000  C
  O482     1.0000 0.86450  0.50000  0.05021  Biso   1.000  O
  C220     1.0000 0.82856  0.50000  0.12989  Biso   1.000  C
  H266     1.0000 0.80620  0.50000  0.12390  Biso   1.000  H
  C221     1.0000 0.85254  0.50000  0.10590  Biso   1.000  C
  C222     1.0000 0.84307  0.50000  0.07041  Biso   1.000  C
  O483     1.0000 0.36450  0.00000  0.05021  Biso   1.000  O
  C223     1.0000 0.32856  0.00000  0.12989  Biso   1.000  C
  H267     1.0000 0.30620  0.00000  0.12390  Biso   1.000  H
  C224     1.0000 0.35254  0.00000  0.10590  Biso   1.000  C
  C225     1.0000 0.34307  0.00000  0.07041  Biso   1.000  C
  O484     1.0000 0.36450  0.50000  0.55021  Biso   1.000  O
  C226     1.0000 0.32856  0.50000  0.62989  Biso   1.000  C
  H268     1.0000 0.30620  0.50000  0.62390  Biso   1.000  H
  C227     1.0000 0.35254  0.50000  0.60590  Biso   1.000  C
  C228     1.0000 0.34307  0.50000  0.57041  Biso   1.000  C
  O485     1.0000 0.13550  0.00000  0.44979  Biso   1.000  O
  C229     1.0000 0.17144  0.00000  0.37011  Biso   1.000  C
  H269     1.0000 0.19380  0.00000  0.37610  Biso   1.000  H
  C230     1.0000 0.14746  0.00000  0.39410  Biso   1.000  C
  C231     1.0000 0.15693  0.00000  0.42959  Biso   1.000  C
  O486     1.0000 0.13550  0.50000  0.94979  Biso   1.000  O
  C232     1.0000 0.17144  0.50000  0.87011  Biso   1.000  C
  H270     1.0000 0.19380  0.50000  0.87610  Biso   1.000  H
  C233     1.0000 0.14746  0.50000  0.89410  Biso   1.000  C
  C234     1.0000 0.15693  0.50000  0.92959  Biso   1.000  C
  O487     1.0000 0.63550  0.00000  0.94979  Biso   1.000  O
  C235     1.0000 0.67144  0.00000  0.87011  Biso   1.000  C
  H271     1.0000 0.69380  0.00000  0.87610  Biso   1.000  H
  C236     1.0000 0.64746  0.00000  0.89410  Biso   1.000  C
  C237     1.0000 0.65693  0.00000  0.92959  Biso   1.000  C
  O488     1.0000 0.63550  0.50000  0.44979  Biso   1.000  O
  C238     1.0000 0.67144  0.50000  0.37011  Biso   1.000  C
  H272     1.0000 0.69380  0.50000  0.37610  Biso   1.000  H
  C239     1.0000 0.64746  0.50000  0.39410  Biso   1.000  C
  C240     1.0000 0.65693  0.50000  0.42959  Biso   1.000  C
  O489     1.0000 0.00000  0.44979  0.86450  Biso   1.000  O
  C241     1.0000 0.00000  0.37011  0.82856  Biso   1.000  C
  H273     1.0000 0.00000  0.37610  0.80620  Biso   1.000  H
  C242     1.0000 0.00000  0.39410  0.85254  Biso   1.000  C
  C243     1.0000 0.00000  0.42959  0.84307  Biso   1.000  C
  O490     1.0000 0.00000  0.94979  0.36450  Biso   1.000  O
  C244     1.0000 0.00000  0.87011  0.32856  Biso   1.000  C
  H274     1.0000 0.00000  0.87610  0.30620  Biso   1.000  H
  C245     1.0000 0.00000  0.89410  0.35254  Biso   1.000  C
  C246     1.0000 0.00000  0.92959  0.34307  Biso   1.000  C
  O491     1.0000 0.50000  0.44979  0.36450  Biso   1.000  O
  C247     1.0000 0.50000  0.37011  0.32856  Biso   1.000  C
  H275     1.0000 0.50000  0.37610  0.30620  Biso   1.000  H
  C248     1.0000 0.50000  0.39410  0.35254  Biso   1.000  C
  C249     1.0000 0.50000  0.42959  0.34307  Biso   1.000  C
  O492     1.0000 0.50000  0.94979  0.86450  Biso   1.000  O
  C250     1.0000 0.50000  0.87011  0.82856  Biso   1.000  C
  H276     1.0000 0.50000  0.87610  0.80620  Biso   1.000  H
  C251     1.0000 0.50000  0.89410  0.85254  Biso   1.000  C
  C252     1.0000 0.50000  0.92959  0.84307  Biso   1.000  C
  O493     1.0000 0.00000  0.55021  0.13550  Biso   1.000  O
  C253     1.0000 0.00000  0.62989  0.17144  Biso   1.000  C
  H277     1.0000 0.00000  0.62390  0.19380  Biso   1.000  H
  C254     1.0000 0.00000  0.60590  0.14746  Biso   1.000  C
  C255     1.0000 0.00000  0.57041  0.15693  Biso   1.000  C
  O494     1.0000 0.00000  0.05021  0.63550  Biso   1.000  O
  C256     1.0000 0.00000  0.12989  0.67144  Biso   1.000  C
  H278     1.0000 0.00000  0.12390  0.69380  Biso   1.000  H
  C257     1.0000 0.00000  0.10590  0.64746  Biso   1.000  C
  C258     1.0000 0.00000  0.07041  0.65693  Biso   1.000  C
  O495     1.0000 0.50000  0.55021  0.63550  Biso   1.000  O
  C259     1.0000 0.50000  0.62989  0.67144  Biso   1.000  C
  H279     1.0000 0.50000  0.62390  0.69380  Biso   1.000  H
  C260     1.0000 0.50000  0.60590  0.64746  Biso   1.000  C
  C261     1.0000 0.50000  0.57041  0.65693  Biso   1.000  C
  O496     1.0000 0.50000  0.05021  0.13550  Biso   1.000  O
  C262     1.0000 0.50000  0.12989  0.17144  Biso   1.000  C
  H280     1.0000 0.50000  0.12390  0.19380  Biso   1.000  H
  C263     1.0000 0.50000  0.10590  0.14746  Biso   1.000  C
  C264     1.0000 0.50000  0.07041  0.15693  Biso   1.000  C
  O497     1.0000 0.00000  0.44979  0.13550  Biso   1.000  O
  C265     1.0000 0.00000  0.37011  0.17144  Biso   1.000  C
  H281     1.0000 0.00000  0.37610  0.19380  Biso   1.000  H
  C266     1.0000 0.00000  0.39410  0.14746  Biso   1.000  C
  C267     1.0000 0.00000  0.42959  0.15693  Biso   1.000  C
  O498     1.0000 0.00000  0.94979  0.63550  Biso   1.000  O
  C268     1.0000 0.00000  0.87011  0.67144  Biso   1.000  C
  H282     1.0000 0.00000  0.87610  0.69380  Biso   1.000  H
  C269     1.0000 0.00000  0.89410  0.64746  Biso   1.000  C
  C270     1.0000 0.00000  0.92959  0.65693  Biso   1.000  C
  O499     1.0000 0.50000  0.44979  0.63550  Biso   1.000  O
  C271     1.0000 0.50000  0.37011  0.67144  Biso   1.000  C
  H283     1.0000 0.50000  0.37610  0.69380  Biso   1.000  H
  C272     1.0000 0.50000  0.39410  0.64746  Biso   1.000  C
  C273     1.0000 0.50000  0.42959  0.65693  Biso   1.000  C
  O500     1.0000 0.50000  0.94979  0.13550  Biso   1.000  O
  C274     1.0000 0.50000  0.87011  0.17144  Biso   1.000  C
  H284     1.0000 0.50000  0.87610  0.19380  Biso   1.000  H
  C275     1.0000 0.50000  0.89410  0.14746  Biso   1.000  C
  C276     1.0000 0.50000  0.92959  0.15693  Biso   1.000  C
  O501     1.0000 0.00000  0.55021  0.86450  Biso   1.000  O
  C277     1.0000 0.00000  0.62989  0.82856  Biso   1.000  C
  H285     1.0000 0.00000  0.62390  0.80620  Biso   1.000  H
  C278     1.0000 0.00000  0.60590  0.85254  Biso   1.000  C
  C279     1.0000 0.00000  0.57041  0.84307  Biso   1.000  C
  O502     1.0000 0.00000  0.05021  0.36450  Biso   1.000  O
  C280     1.0000 0.00000  0.12989  0.32856  Biso   1.000  C
  H286     1.0000 0.00000  0.12390  0.30620  Biso   1.000  H
  C281     1.0000 0.00000  0.10590  0.35254  Biso   1.000  C
  C282     1.0000 0.00000  0.07041  0.34307  Biso   1.000  C
  O503     1.0000 0.50000  0.55021  0.36450  Biso   1.000  O
  C283     1.0000 0.50000  0.62989  0.32856  Biso   1.000  C
  H287     1.0000 0.50000  0.62390  0.30620  Biso   1.000  H
  C284     1.0000 0.50000  0.60590  0.35254  Biso   1.000  C
  C285     1.0000 0.50000  0.57041  0.34307  Biso   1.000  C
  O504     1.0000 0.50000  0.05021  0.86450  Biso   1.000  O
  C286     1.0000 0.50000  0.12989  0.82856  Biso   1.000  C
  H288     1.0000 0.50000  0.12390  0.80620  Biso   1.000  H
  C287     1.0000 0.50000  0.10590  0.85254  Biso   1.000  C
  C288     1.0000 0.50000  0.07041  0.84307  Biso   1.000  C
  C289     1.0000 0.16267  0.33733  0.00000  Biso   1.000  C
  C290     1.0000 0.11468  0.38532  0.00000  Biso   1.000  C
  H289     1.0000 0.09830  0.40170  0.00000  Biso   1.000  H
  C291     1.0000 0.18881  0.31119  0.00000  Biso   1.000  C
  C292     1.0000 0.23679  0.26321  0.00000  Biso   1.000  C
  C293     1.0000 0.16267  0.83733  0.50000  Biso   1.000  C
  C294     1.0000 0.11468  0.88532  0.50000  Biso   1.000  C
  H290     1.0000 0.09830  0.90170  0.50000  Biso   1.000  H
  C295     1.0000 0.18881  0.81119  0.50000  Biso   1.000  C
  C296     1.0000 0.23679  0.76321  0.50000  Biso   1.000  C
  C297     1.0000 0.83733  0.66267  0.00000  Biso   1.000  C
  C298     1.0000 0.88532  0.61468  0.00000  Biso   1.000  C
  H291     1.0000 0.90170  0.59830  0.00000  Biso   1.000  H
  C299     1.0000 0.81119  0.68881  0.00000  Biso   1.000  C
  C300     1.0000 0.76321  0.73679  0.00000  Biso   1.000  C
  C301     1.0000 0.83733  0.16267  0.50000  Biso   1.000  C
  C302     1.0000 0.88532  0.11468  0.50000  Biso   1.000  C
  H292     1.0000 0.90170  0.09830  0.50000  Biso   1.000  H
  C303     1.0000 0.81119  0.18881  0.50000  Biso   1.000  C
  C304     1.0000 0.76321  0.23679  0.50000  Biso   1.000  C
  C305     1.0000 0.33733  0.16267  0.00000  Biso   1.000  C
  C306     1.0000 0.38532  0.11468  0.00000  Biso   1.000  C
  H293     1.0000 0.40170  0.09830  0.00000  Biso   1.000  H
  C307     1.0000 0.31119  0.18881  0.00000  Biso   1.000  C
  C308     1.0000 0.26321  0.23679  0.00000  Biso   1.000  C
  C309     1.0000 0.83733  0.33733  0.00000  Biso   1.000  C
  C310     1.0000 0.88532  0.38532  0.00000  Biso   1.000  C
  H294     1.0000 0.90170  0.40170  0.00000  Biso   1.000  H
  C311     1.0000 0.81119  0.31119  0.00000  Biso   1.000  C
  C312     1.0000 0.76321  0.26321  0.00000  Biso   1.000  C
  C313     1.0000 0.83733  0.83733  0.50000  Biso   1.000  C
  C314     1.0000 0.88532  0.88532  0.50000  Biso   1.000  C
  H295     1.0000 0.90170  0.90170  0.50000  Biso   1.000  H
  C315     1.0000 0.81119  0.81119  0.50000  Biso   1.000  C
  C316     1.0000 0.76321  0.76321  0.50000  Biso   1.000  C
  C317     1.0000 0.33733  0.33733  0.50000  Biso   1.000  C
  C318     1.0000 0.38532  0.38532  0.50000  Biso   1.000  C
  H296     1.0000 0.40170  0.40170  0.50000  Biso   1.000  H
  C319     1.0000 0.31119  0.31119  0.50000  Biso   1.000  C
  C320     1.0000 0.26321  0.26321  0.50000  Biso   1.000  C
  C321     1.0000 0.16267  0.66267  0.00000  Biso   1.000  C
  C322     1.0000 0.11468  0.61468  0.00000  Biso   1.000  C
  H297     1.0000 0.09830  0.59830  0.00000  Biso   1.000  H
  C323     1.0000 0.18881  0.68881  0.00000  Biso   1.000  C
  C324     1.0000 0.23679  0.73679  0.00000  Biso   1.000  C
  C325     1.0000 0.16267  0.16267  0.50000  Biso   1.000  C
  C326     1.0000 0.11468  0.11468  0.50000  Biso   1.000  C
  H298     1.0000 0.09830  0.09830  0.50000  Biso   1.000  H
  C327     1.0000 0.18881  0.18881  0.50000  Biso   1.000  C
  C328     1.0000 0.23679  0.23679  0.50000  Biso   1.000  C
  C329     1.0000 0.00000  0.16267  0.33733  Biso   1.000  C
  C330     1.0000 0.00000  0.11468  0.38532  Biso   1.000  C
  H299     1.0000 0.00000  0.09830  0.40170  Biso   1.000  H
  C331     1.0000 0.00000  0.18881  0.31119  Biso   1.000  C
  C332     1.0000 0.00000  0.23679  0.26321  Biso   1.000  C
  C333     1.0000 0.50000  0.16267  0.83733  Biso   1.000  C
  C334     1.0000 0.50000  0.11468  0.88532  Biso   1.000  C
  H300     1.0000 0.50000  0.09830  0.90170  Biso   1.000  H
  C335     1.0000 0.50000  0.18881  0.81119  Biso   1.000  C
  C336     1.0000 0.50000  0.23679  0.76321  Biso   1.000  C
  C337     1.0000 0.00000  0.83733  0.66267  Biso   1.000  C
  C338     1.0000 0.00000  0.88532  0.61468  Biso   1.000  C
  H301     1.0000 0.00000  0.90170  0.59830  Biso   1.000  H
  C339     1.0000 0.00000  0.81119  0.68881  Biso   1.000  C
  C340     1.0000 0.00000  0.76321  0.73679  Biso   1.000  C
  C341     1.0000 0.00000  0.33733  0.16267  Biso   1.000  C
  C342     1.0000 0.00000  0.38532  0.11468  Biso   1.000  C
  H302     1.0000 0.00000  0.40170  0.09830  Biso   1.000  H
  C343     1.0000 0.00000  0.31119  0.18881  Biso   1.000  C
  C344     1.0000 0.00000  0.26321  0.23679  Biso   1.000  C
  C345     1.0000 0.50000  0.83733  0.16267  Biso   1.000  C
  C346     1.0000 0.50000  0.88532  0.11468  Biso   1.000  C
  H303     1.0000 0.50000  0.90170  0.09830  Biso   1.000  H
  C347     1.0000 0.50000  0.81119  0.18881  Biso   1.000  C
  C348     1.0000 0.50000  0.76321  0.23679  Biso   1.000  C
  C349     1.0000 0.00000  0.83733  0.33733  Biso   1.000  C
  C350     1.0000 0.00000  0.88532  0.38532  Biso   1.000  C
  H304     1.0000 0.00000  0.90170  0.40170  Biso   1.000  H
  C351     1.0000 0.00000  0.81119  0.31119  Biso   1.000  C
  C352     1.0000 0.00000  0.76321  0.26321  Biso   1.000  C
  C353     1.0000 0.50000  0.83733  0.83733  Biso   1.000  C
  C354     1.0000 0.50000  0.88532  0.88532  Biso   1.000  C
  H305     1.0000 0.50000  0.90170  0.90170  Biso   1.000  H
  C355     1.0000 0.50000  0.81119  0.81119  Biso   1.000  C
  C356     1.0000 0.50000  0.76321  0.76321  Biso   1.000  C
  C357     1.0000 0.50000  0.33733  0.33733  Biso   1.000  C
  C358     1.0000 0.50000  0.38532  0.38532  Biso   1.000  C
  H306     1.0000 0.50000  0.40170  0.40170  Biso   1.000  H
  C359     1.0000 0.50000  0.31119  0.31119  Biso   1.000  C
  C360     1.0000 0.50000  0.26321  0.26321  Biso   1.000  C
  C361     1.0000 0.00000  0.16267  0.66267  Biso   1.000  C
  C362     1.0000 0.00000  0.11468  0.61468  Biso   1.000  C
  H307     1.0000 0.00000  0.09830  0.59830  Biso   1.000  H
  C363     1.0000 0.00000  0.18881  0.68881  Biso   1.000  C
  C364     1.0000 0.00000  0.23679  0.73679  Biso   1.000  C
  C365     1.0000 0.50000  0.16267  0.16267  Biso   1.000  C
  C366     1.0000 0.50000  0.11468  0.11468  Biso   1.000  C
  H308     1.0000 0.50000  0.09830  0.09830  Biso   1.000  H
  C367     1.0000 0.50000  0.18881  0.18881  Biso   1.000  C
  C368     1.0000 0.50000  0.23679  0.23679  Biso   1.000  C
  C369     1.0000 0.33733  0.00000  0.16267  Biso   1.000  C
  C370     1.0000 0.38532  0.00000  0.11468  Biso   1.000  C
  H309     1.0000 0.40170  0.00000  0.09830  Biso   1.000  H
  C371     1.0000 0.31119  0.00000  0.18881  Biso   1.000  C
  C372     1.0000 0.26321  0.00000  0.23679  Biso   1.000  C
  C373     1.0000 0.33733  0.50000  0.66267  Biso   1.000  C
  C374     1.0000 0.38532  0.50000  0.61468  Biso   1.000  C
  H310     1.0000 0.40170  0.50000  0.59830  Biso   1.000  H
  C375     1.0000 0.31119  0.50000  0.68881  Biso   1.000  C
  C376     1.0000 0.26321  0.50000  0.73679  Biso   1.000  C
  C377     1.0000 0.66267  0.00000  0.83733  Biso   1.000  C
  C378     1.0000 0.61468  0.00000  0.88532  Biso   1.000  C
  H311     1.0000 0.59830  0.00000  0.90170  Biso   1.000  H
  C379     1.0000 0.68881  0.00000  0.81119  Biso   1.000  C
  C380     1.0000 0.73679  0.00000  0.76321  Biso   1.000  C
  C381     1.0000 0.66267  0.50000  0.33733  Biso   1.000  C
  C382     1.0000 0.61468  0.50000  0.38532  Biso   1.000  C
  H312     1.0000 0.59830  0.50000  0.40170  Biso   1.000  H
  C383     1.0000 0.68881  0.50000  0.31119  Biso   1.000  C
  C384     1.0000 0.73679  0.50000  0.26321  Biso   1.000  C
  C385     1.0000 0.16267  0.00000  0.33733  Biso   1.000  C
  C386     1.0000 0.11468  0.00000  0.38532  Biso   1.000  C
  H313     1.0000 0.09830  0.00000  0.40170  Biso   1.000  H
  C387     1.0000 0.18881  0.00000  0.31119  Biso   1.000  C
  C388     1.0000 0.23679  0.00000  0.26321  Biso   1.000  C
  C389     1.0000 0.33733  0.00000  0.83733  Biso   1.000  C
  C390     1.0000 0.38532  0.00000  0.88532  Biso   1.000  C
  H314     1.0000 0.40170  0.00000  0.90170  Biso   1.000  H
  C391     1.0000 0.31119  0.00000  0.81119  Biso   1.000  C
  C392     1.0000 0.26321  0.00000  0.76321  Biso   1.000  C
  C393     1.0000 0.33733  0.50000  0.33733  Biso   1.000  C
  C394     1.0000 0.38532  0.50000  0.38532  Biso   1.000  C
  H315     1.0000 0.40170  0.50000  0.40170  Biso   1.000  H
  C395     1.0000 0.31119  0.50000  0.31119  Biso   1.000  C
  C396     1.0000 0.26321  0.50000  0.26321  Biso   1.000  C
  C397     1.0000 0.66267  0.00000  0.16267  Biso   1.000  C
  C398     1.0000 0.61468  0.00000  0.11468  Biso   1.000  C
  H316     1.0000 0.59830  0.00000  0.09830  Biso   1.000  H
  C399     1.0000 0.68881  0.00000  0.18881  Biso   1.000  C
  C400     1.0000 0.73679  0.00000  0.23679  Biso   1.000  C
  C401     1.0000 0.66267  0.50000  0.66267  Biso   1.000  C
  C402     1.0000 0.61468  0.50000  0.61468  Biso   1.000  C
  H317     1.0000 0.59830  0.50000  0.59830  Biso   1.000  H
  C403     1.0000 0.68881  0.50000  0.68881  Biso   1.000  C
  C404     1.0000 0.73679  0.50000  0.73679  Biso   1.000  C
  C405     1.0000 0.16267  0.50000  0.16267  Biso   1.000  C
  C406     1.0000 0.11468  0.50000  0.11468  Biso   1.000  C
  H318     1.0000 0.09830  0.50000  0.09830  Biso   1.000  H
  C407     1.0000 0.18881  0.50000  0.18881  Biso   1.000  C
  C408     1.0000 0.23679  0.50000  0.23679  Biso   1.000  C
  C409     1.0000 0.33733  0.66267  0.50000  Biso   1.000  C
  C410     1.0000 0.38532  0.61468  0.50000  Biso   1.000  C
  H319     1.0000 0.40170  0.59830  0.50000  Biso   1.000  H
  C411     1.0000 0.31119  0.68881  0.50000  Biso   1.000  C
  C412     1.0000 0.26321  0.73679  0.50000  Biso   1.000  C
  C413     1.0000 0.66267  0.83733  0.00000  Biso   1.000  C
  C414     1.0000 0.61468  0.88532  0.00000  Biso   1.000  C
  H320     1.0000 0.59830  0.90170  0.00000  Biso   1.000  H
  C415     1.0000 0.68881  0.81119  0.00000  Biso   1.000  C
  C416     1.0000 0.73679  0.76321  0.00000  Biso   1.000  C
  C417     1.0000 0.66267  0.33733  0.50000  Biso   1.000  C
  C418     1.0000 0.61468  0.38532  0.50000  Biso   1.000  C
  H321     1.0000 0.59830  0.40170  0.50000  Biso   1.000  H
  C419     1.0000 0.68881  0.31119  0.50000  Biso   1.000  C
  C420     1.0000 0.73679  0.26321  0.50000  Biso   1.000  C
  C421     1.0000 0.33733  0.83733  0.00000  Biso   1.000  C
  C422     1.0000 0.38532  0.88532  0.00000  Biso   1.000  C
  H322     1.0000 0.40170  0.90170  0.00000  Biso   1.000  H
  C423     1.0000 0.31119  0.81119  0.00000  Biso   1.000  C
  C424     1.0000 0.26321  0.76321  0.00000  Biso   1.000  C
  C425     1.0000 0.66267  0.16267  0.00000  Biso   1.000  C
  C426     1.0000 0.61468  0.11468  0.00000  Biso   1.000  C
  H323     1.0000 0.59830  0.09830  0.00000  Biso   1.000  H
  C427     1.0000 0.68881  0.18881  0.00000  Biso   1.000  C
  C428     1.0000 0.73679  0.23679  0.00000  Biso   1.000  C
  C429     1.0000 0.66267  0.66267  0.50000  Biso   1.000  C
  C430     1.0000 0.61468  0.61468  0.50000  Biso   1.000  C
  H324     1.0000 0.59830  0.59830  0.50000  Biso   1.000  H
  C431     1.0000 0.68881  0.68881  0.50000  Biso   1.000  C
  C432     1.0000 0.73679  0.73679  0.50000  Biso   1.000  C
  C433     1.0000 0.16267  0.00000  0.66267  Biso   1.000  C
  C434     1.0000 0.11468  0.00000  0.61468  Biso   1.000  C
  H325     1.0000 0.09830  0.00000  0.59830  Biso   1.000  H
  C435     1.0000 0.18881  0.00000  0.68881  Biso   1.000  C
  C436     1.0000 0.23679  0.00000  0.73679  Biso   1.000  C
  C437     1.0000 0.83733  0.00000  0.33733  Biso   1.000  C
  C438     1.0000 0.88532  0.00000  0.38532  Biso   1.000  C
  H326     1.0000 0.90170  0.00000  0.40170  Biso   1.000  H
  C439     1.0000 0.81119  0.00000  0.31119  Biso   1.000  C
  C440     1.0000 0.76321  0.00000  0.26321  Biso   1.000  C
  C441     1.0000 0.83733  0.50000  0.83733  Biso   1.000  C
  C442     1.0000 0.88532  0.50000  0.88532  Biso   1.000  C
  H327     1.0000 0.90170  0.50000  0.90170  Biso   1.000  H
  C443     1.0000 0.81119  0.50000  0.81119  Biso   1.000  C
  C444     1.0000 0.76321  0.50000  0.76321  Biso   1.000  C
  C445     1.0000 0.83733  0.00000  0.66267  Biso   1.000  C
  C446     1.0000 0.88532  0.00000  0.61468  Biso   1.000  C
  H328     1.0000 0.90170  0.00000  0.59830  Biso   1.000  H
  C447     1.0000 0.81119  0.00000  0.68881  Biso   1.000  C
  C448     1.0000 0.76321  0.00000  0.73679  Biso   1.000  C
  C449     1.0000 0.83733  0.50000  0.16267  Biso   1.000  C
  C450     1.0000 0.88532  0.50000  0.11468  Biso   1.000  C
  H329     1.0000 0.90170  0.50000  0.09830  Biso   1.000  H
  C451     1.0000 0.81119  0.50000  0.18881  Biso   1.000  C
  C452     1.0000 0.76321  0.50000  0.23679  Biso   1.000  C
  C453     1.0000 0.16267  0.50000  0.83733  Biso   1.000  C
  C454     1.0000 0.11468  0.50000  0.88532  Biso   1.000  C
  H330     1.0000 0.09830  0.50000  0.90170  Biso   1.000  H
  C455     1.0000 0.18881  0.50000  0.81119  Biso   1.000  C
  C456     1.0000 0.23679  0.50000  0.76321  Biso   1.000  C
  C457     1.0000 0.00000  0.33733  0.83733  Biso   1.000  C
  C458     1.0000 0.00000  0.38532  0.88532  Biso   1.000  C
  H331     1.0000 0.00000  0.40170  0.90170  Biso   1.000  H
  C459     1.0000 0.00000  0.31119  0.81119  Biso   1.000  C
  C460     1.0000 0.00000  0.26321  0.76321  Biso   1.000  C
  C461     1.0000 0.00000  0.66267  0.16267  Biso   1.000  C
  C462     1.0000 0.00000  0.61468  0.11468  Biso   1.000  C
  H332     1.0000 0.00000  0.59830  0.09830  Biso   1.000  H
  C463     1.0000 0.00000  0.68881  0.18881  Biso   1.000  C
  C464     1.0000 0.00000  0.73679  0.23679  Biso   1.000  C
  C465     1.0000 0.50000  0.66267  0.66267  Biso   1.000  C
  C466     1.0000 0.50000  0.61468  0.61468  Biso   1.000  C
  H333     1.0000 0.50000  0.59830  0.59830  Biso   1.000  H
  C467     1.0000 0.50000  0.68881  0.68881  Biso   1.000  C
  C468     1.0000 0.50000  0.73679  0.73679  Biso   1.000  C
  C469     1.0000 0.50000  0.33733  0.66267  Biso   1.000  C
  C470     1.0000 0.50000  0.38532  0.61468  Biso   1.000  C
  H334     1.0000 0.50000  0.40170  0.59830  Biso   1.000  H
  C471     1.0000 0.50000  0.31119  0.68881  Biso   1.000  C
  C472     1.0000 0.50000  0.26321  0.73679  Biso   1.000  C
  C473     1.0000 0.00000  0.66267  0.83733  Biso   1.000  C
  C474     1.0000 0.00000  0.61468  0.88532  Biso   1.000  C
  H335     1.0000 0.00000  0.59830  0.90170  Biso   1.000  H
  C475     1.0000 0.00000  0.68881  0.81119  Biso   1.000  C
  C476     1.0000 0.00000  0.73679  0.76321  Biso   1.000  C
  C477     1.0000 0.50000  0.66267  0.33733  Biso   1.000  C
  C478     1.0000 0.50000  0.61468  0.38532  Biso   1.000  C
  H336     1.0000 0.50000  0.59830  0.40170  Biso   1.000  H
  C479     1.0000 0.50000  0.68881  0.31119  Biso   1.000  C
  C480     1.0000 0.50000  0.73679  0.26321  Biso   1.000  C
  C481     1.0000 0.20081  0.29919  0.02938  Biso   1.000  C
  C482     1.0000 0.22480  0.27520  0.02938  Biso   1.000  C
  H337     1.0000 0.23300  0.26700  0.04950  Biso   1.000  H
  C483     1.0000 0.18689  0.31311  0.06180  Biso   1.000  C
  H338     1.0000 0.17035  0.32965  0.05690  Biso   1.000  H
  C484     1.0000 0.20081  0.79919  0.52938  Biso   1.000  C
  C485     1.0000 0.22480  0.77520  0.52938  Biso   1.000  C
  H339     1.0000 0.23300  0.76700  0.54950  Biso   1.000  H
  C486     1.0000 0.18689  0.81311  0.56180  Biso   1.000  C
  H340     1.0000 0.17035  0.82965  0.55690  Biso   1.000  H
  C487     1.0000 0.79919  0.70081  0.02938  Biso   1.000  C
  C488     1.0000 0.77520  0.72480  0.02938  Biso   1.000  C
  H341     1.0000 0.76700  0.73300  0.04950  Biso   1.000  H
  C489     1.0000 0.81311  0.68689  0.06180  Biso   1.000  C
  H342     1.0000 0.82965  0.67035  0.05690  Biso   1.000  H
  C490     1.0000 0.79919  0.20081  0.52938  Biso   1.000  C
  C491     1.0000 0.77520  0.22480  0.52938  Biso   1.000  C
  H343     1.0000 0.76700  0.23300  0.54950  Biso   1.000  H
  C492     1.0000 0.81311  0.18689  0.56180  Biso   1.000  C
  H344     1.0000 0.82965  0.17035  0.55690  Biso   1.000  H
  C493     1.0000 0.29919  0.20081  0.02938  Biso   1.000  C
  C494     1.0000 0.27520  0.22480  0.02938  Biso   1.000  C
  H345     1.0000 0.26700  0.23300  0.04950  Biso   1.000  H
  C495     1.0000 0.31311  0.18689  0.06180  Biso   1.000  C
  H346     1.0000 0.32965  0.17035  0.05690  Biso   1.000  H
  C496     1.0000 0.79919  0.29919  0.97062  Biso   1.000  C
  C497     1.0000 0.77520  0.27520  0.97062  Biso   1.000  C
  H347     1.0000 0.76700  0.26700  0.95050  Biso   1.000  H
  C498     1.0000 0.81311  0.31311  0.93820  Biso   1.000  C
  H348     1.0000 0.82965  0.32965  0.94310  Biso   1.000  H
  C499     1.0000 0.79919  0.79919  0.47062  Biso   1.000  C
  C500     1.0000 0.77520  0.77520  0.47062  Biso   1.000  C
  H349     1.0000 0.76700  0.76700  0.45050  Biso   1.000  H
  C501     1.0000 0.81311  0.81311  0.43820  Biso   1.000  C
  H350     1.0000 0.82965  0.82965  0.44310  Biso   1.000  H
  C502     1.0000 0.29919  0.29919  0.47062  Biso   1.000  C
  C503     1.0000 0.27520  0.27520  0.47062  Biso   1.000  C
  H351     1.0000 0.26700  0.26700  0.45050  Biso   1.000  H
  C504     1.0000 0.31311  0.31311  0.43820  Biso   1.000  C
  H352     1.0000 0.32965  0.32965  0.44310  Biso   1.000  H
  C505     1.0000 0.20081  0.70081  0.97062  Biso   1.000  C
  C506     1.0000 0.22480  0.72480  0.97062  Biso   1.000  C
  H353     1.0000 0.23300  0.73300  0.95050  Biso   1.000  H
  C507     1.0000 0.18689  0.68689  0.93820  Biso   1.000  C
  H354     1.0000 0.17035  0.67035  0.94310  Biso   1.000  H
  C508     1.0000 0.20081  0.20081  0.47062  Biso   1.000  C
  C509     1.0000 0.22480  0.22480  0.47062  Biso   1.000  C
  H355     1.0000 0.23300  0.23300  0.45050  Biso   1.000  H
  C510     1.0000 0.18689  0.18689  0.43820  Biso   1.000  C
  H356     1.0000 0.17035  0.17035  0.44310  Biso   1.000  H
  C511     1.0000 0.02938  0.20081  0.29919  Biso   1.000  C
  C512     1.0000 0.02938  0.22480  0.27520  Biso   1.000  C
  H357     1.0000 0.04950  0.23300  0.26700  Biso   1.000  H
  C513     1.0000 0.06180  0.18689  0.31311  Biso   1.000  C
  H358     1.0000 0.05690  0.17035  0.32965  Biso   1.000  H
  C514     1.0000 0.52938  0.20081  0.79919  Biso   1.000  C
  C515     1.0000 0.52938  0.22480  0.77520  Biso   1.000  C
  H359     1.0000 0.54950  0.23300  0.76700  Biso   1.000  H
  C516     1.0000 0.56180  0.18689  0.81311  Biso   1.000  C
  H360     1.0000 0.55690  0.17035  0.82965  Biso   1.000  H
  C517     1.0000 0.02938  0.79919  0.70081  Biso   1.000  C
  C518     1.0000 0.02938  0.77520  0.72480  Biso   1.000  C
  H361     1.0000 0.04950  0.76700  0.73300  Biso   1.000  H
  C519     1.0000 0.06180  0.81311  0.68689  Biso   1.000  C
  H362     1.0000 0.05690  0.82965  0.67035  Biso   1.000  H
  C520     1.0000 0.02938  0.29919  0.20081  Biso   1.000  C
  C521     1.0000 0.02938  0.27520  0.22480  Biso   1.000  C
  H363     1.0000 0.04950  0.26700  0.23300  Biso   1.000  H
  C522     1.0000 0.06180  0.31311  0.18689  Biso   1.000  C
  H364     1.0000 0.05690  0.32965  0.17035  Biso   1.000  H
  C523     1.0000 0.52938  0.79919  0.20081  Biso   1.000  C
  C524     1.0000 0.52938  0.77520  0.22480  Biso   1.000  C
  H365     1.0000 0.54950  0.76700  0.23300  Biso   1.000  H
  C525     1.0000 0.56180  0.81311  0.18689  Biso   1.000  C
  H366     1.0000 0.55690  0.82965  0.17035  Biso   1.000  H
  C526     1.0000 0.97062  0.79919  0.29919  Biso   1.000  C
  C527     1.0000 0.97062  0.77520  0.27520  Biso   1.000  C
  H367     1.0000 0.95050  0.76700  0.26700  Biso   1.000  H
  C528     1.0000 0.93820  0.81311  0.31311  Biso   1.000  C
  H368     1.0000 0.94310  0.82965  0.32965  Biso   1.000  H
  C529     1.0000 0.47062  0.79919  0.79919  Biso   1.000  C
  C530     1.0000 0.47062  0.77520  0.77520  Biso   1.000  C
  H369     1.0000 0.45050  0.76700  0.76700  Biso   1.000  H
  C531     1.0000 0.43820  0.81311  0.81311  Biso   1.000  C
  H370     1.0000 0.44310  0.82965  0.82965  Biso   1.000  H
  C532     1.0000 0.47062  0.29919  0.29919  Biso   1.000  C
  C533     1.0000 0.47062  0.27520  0.27520  Biso   1.000  C
  H371     1.0000 0.45050  0.26700  0.26700  Biso   1.000  H
  C534     1.0000 0.43820  0.31311  0.31311  Biso   1.000  C
  H372     1.0000 0.44310  0.32965  0.32965  Biso   1.000  H
  C535     1.0000 0.97062  0.20081  0.70081  Biso   1.000  C
  C536     1.0000 0.97062  0.22480  0.72480  Biso   1.000  C
  H373     1.0000 0.95050  0.23300  0.73300  Biso   1.000  H
  C537     1.0000 0.93820  0.18689  0.68689  Biso   1.000  C
  H374     1.0000 0.94310  0.17035  0.67035  Biso   1.000  H
  C538     1.0000 0.47062  0.20081  0.20081  Biso   1.000  C
  C539     1.0000 0.47062  0.22480  0.22480  Biso   1.000  C
  H375     1.0000 0.45050  0.23300  0.23300  Biso   1.000  H
  C540     1.0000 0.43820  0.18689  0.18689  Biso   1.000  C
  H376     1.0000 0.44310  0.17035  0.17035  Biso   1.000  H
  C541     1.0000 0.29919  0.02938  0.20081  Biso   1.000  C
  C542     1.0000 0.27520  0.02938  0.22480  Biso   1.000  C
  H377     1.0000 0.26700  0.04950  0.23300  Biso   1.000  H
  C543     1.0000 0.31311  0.06180  0.18689  Biso   1.000  C
  H378     1.0000 0.32965  0.05690  0.17035  Biso   1.000  H
  C544     1.0000 0.29919  0.52938  0.70081  Biso   1.000  C
  C545     1.0000 0.27520  0.52938  0.72480  Biso   1.000  C
  H379     1.0000 0.26700  0.54950  0.73300  Biso   1.000  H
  C546     1.0000 0.31311  0.56180  0.68689  Biso   1.000  C
  H380     1.0000 0.32965  0.55690  0.67035  Biso   1.000  H
  C547     1.0000 0.70081  0.02938  0.79919  Biso   1.000  C
  C548     1.0000 0.72480  0.02938  0.77520  Biso   1.000  C
  H381     1.0000 0.73300  0.04950  0.76700  Biso   1.000  H
  C549     1.0000 0.68689  0.06180  0.81311  Biso   1.000  C
  H382     1.0000 0.67035  0.05690  0.82965  Biso   1.000  H
  C550     1.0000 0.70081  0.52938  0.29919  Biso   1.000  C
  C551     1.0000 0.72480  0.52938  0.27520  Biso   1.000  C
  H383     1.0000 0.73300  0.54950  0.26700  Biso   1.000  H
  C552     1.0000 0.68689  0.56180  0.31311  Biso   1.000  C
  H384     1.0000 0.67035  0.55690  0.32965  Biso   1.000  H
  C553     1.0000 0.20081  0.02938  0.29919  Biso   1.000  C
  C554     1.0000 0.22480  0.02938  0.27520  Biso   1.000  C
  H385     1.0000 0.23300  0.04950  0.26700  Biso   1.000  H
  C555     1.0000 0.18689  0.06180  0.31311  Biso   1.000  C
  H386     1.0000 0.17035  0.05690  0.32965  Biso   1.000  H
  C556     1.0000 0.29919  0.97062  0.79919  Biso   1.000  C
  C557     1.0000 0.27520  0.97062  0.77520  Biso   1.000  C
  H387     1.0000 0.26700  0.95050  0.76700  Biso   1.000  H
  C558     1.0000 0.31311  0.93820  0.81311  Biso   1.000  C
  H388     1.0000 0.32965  0.94310  0.82965  Biso   1.000  H
  C559     1.0000 0.29919  0.47062  0.29919  Biso   1.000  C
  C560     1.0000 0.27520  0.47062  0.27520  Biso   1.000  C
  H389     1.0000 0.26700  0.45050  0.26700  Biso   1.000  H
  C561     1.0000 0.31311  0.43820  0.31311  Biso   1.000  C
  H390     1.0000 0.32965  0.44310  0.32965  Biso   1.000  H
  C562     1.0000 0.70081  0.97062  0.20081  Biso   1.000  C
  C563     1.0000 0.72480  0.97062  0.22480  Biso   1.000  C
  H391     1.0000 0.73300  0.95050  0.23300  Biso   1.000  H
  C564     1.0000 0.68689  0.93820  0.18689  Biso   1.000  C
  H392     1.0000 0.67035  0.94310  0.17035  Biso   1.000  H
  C565     1.0000 0.70081  0.47062  0.70081  Biso   1.000  C
  C566     1.0000 0.72480  0.47062  0.72480  Biso   1.000  C
  H393     1.0000 0.73300  0.45050  0.73300  Biso   1.000  H
  C567     1.0000 0.68689  0.43820  0.68689  Biso   1.000  C
  H394     1.0000 0.67035  0.44310  0.67035  Biso   1.000  H
  C568     1.0000 0.20081  0.47062  0.20081  Biso   1.000  C
  C569     1.0000 0.22480  0.47062  0.22480  Biso   1.000  C
  H395     1.0000 0.23300  0.45050  0.23300  Biso   1.000  H
  C570     1.0000 0.18689  0.43820  0.18689  Biso   1.000  C
  H396     1.0000 0.17035  0.44310  0.17035  Biso   1.000  H
  C571     1.0000 0.29919  0.20081  0.97062  Biso   1.000  C
  C572     1.0000 0.27520  0.22480  0.97062  Biso   1.000  C
  H397     1.0000 0.26700  0.23300  0.95050  Biso   1.000  H
  C573     1.0000 0.31311  0.18689  0.93820  Biso   1.000  C
  H398     1.0000 0.32965  0.17035  0.94310  Biso   1.000  H
  C574     1.0000 0.29919  0.70081  0.47062  Biso   1.000  C
  C575     1.0000 0.27520  0.72480  0.47062  Biso   1.000  C
  H399     1.0000 0.26700  0.73300  0.45050  Biso   1.000  H
  C576     1.0000 0.31311  0.68689  0.43820  Biso   1.000  C
  H400     1.0000 0.32965  0.67035  0.44310  Biso   1.000  H
  C577     1.0000 0.70081  0.79919  0.97062  Biso   1.000  C
  C578     1.0000 0.72480  0.77520  0.97062  Biso   1.000  C
  H401     1.0000 0.73300  0.76700  0.95050  Biso   1.000  H
  C579     1.0000 0.68689  0.81311  0.93820  Biso   1.000  C
  H402     1.0000 0.67035  0.82965  0.94310  Biso   1.000  H
  C580     1.0000 0.70081  0.29919  0.47062  Biso   1.000  C
  C581     1.0000 0.72480  0.27520  0.47062  Biso   1.000  C
  H403     1.0000 0.73300  0.26700  0.45050  Biso   1.000  H
  C582     1.0000 0.68689  0.31311  0.43820  Biso   1.000  C
  H404     1.0000 0.67035  0.32965  0.44310  Biso   1.000  H
  C583     1.0000 0.20081  0.29919  0.97062  Biso   1.000  C
  C584     1.0000 0.22480  0.27520  0.97062  Biso   1.000  C
  H405     1.0000 0.23300  0.26700  0.95050  Biso   1.000  H
  C585     1.0000 0.18689  0.31311  0.93820  Biso   1.000  C
  H406     1.0000 0.17035  0.32965  0.94310  Biso   1.000  H
  C586     1.0000 0.29919  0.79919  0.02938  Biso   1.000  C
  C587     1.0000 0.27520  0.77520  0.02938  Biso   1.000  C
  H407     1.0000 0.26700  0.76700  0.04950  Biso   1.000  H
  C588     1.0000 0.31311  0.81311  0.06180  Biso   1.000  C
  H408     1.0000 0.32965  0.82965  0.05690  Biso   1.000  H
  C589     1.0000 0.29919  0.29919  0.52938  Biso   1.000  C
  C590     1.0000 0.27520  0.27520  0.52938  Biso   1.000  C
  H409     1.0000 0.26700  0.26700  0.54950  Biso   1.000  H
  C591     1.0000 0.31311  0.31311  0.56180  Biso   1.000  C
  H410     1.0000 0.32965  0.32965  0.55690  Biso   1.000  H
  C592     1.0000 0.70081  0.20081  0.02938  Biso   1.000  C
  C593     1.0000 0.72480  0.22480  0.02938  Biso   1.000  C
  H411     1.0000 0.73300  0.23300  0.04950  Biso   1.000  H
  C594     1.0000 0.68689  0.18689  0.06180  Biso   1.000  C
  H412     1.0000 0.67035  0.17035  0.05690  Biso   1.000  H
  C595     1.0000 0.70081  0.70081  0.52938  Biso   1.000  C
  C596     1.0000 0.72480  0.72480  0.52938  Biso   1.000  C
  H413     1.0000 0.73300  0.73300  0.54950  Biso   1.000  H
  C597     1.0000 0.68689  0.68689  0.56180  Biso   1.000  C
  H414     1.0000 0.67035  0.67035  0.55690  Biso   1.000  H
  C598     1.0000 0.20081  0.20081  0.52938  Biso   1.000  C
  C599     1.0000 0.22480  0.22480  0.52938  Biso   1.000  C
  H415     1.0000 0.23300  0.23300  0.54950  Biso   1.000  H
  C600     1.0000 0.18689  0.18689  0.56180  Biso   1.000  C
  H416     1.0000 0.17035  0.17035  0.55690  Biso   1.000  H
  C601     1.0000 0.20081  0.02938  0.70081  Biso   1.000  C
  C602     1.0000 0.22480  0.02938  0.72480  Biso   1.000  C
  H417     1.0000 0.23300  0.04950  0.73300  Biso   1.000  H
  C603     1.0000 0.18689  0.06180  0.68689  Biso   1.000  C
  H418     1.0000 0.17035  0.05690  0.67035  Biso   1.000  H
  C604     1.0000 0.20081  0.52938  0.20081  Biso   1.000  C
  C605     1.0000 0.22480  0.52938  0.22480  Biso   1.000  C
  H419     1.0000 0.23300  0.54950  0.23300  Biso   1.000  H
  C606     1.0000 0.18689  0.56180  0.18689  Biso   1.000  C
  H420     1.0000 0.17035  0.55690  0.17035  Biso   1.000  H
  C607     1.0000 0.79919  0.02938  0.29919  Biso   1.000  C
  C608     1.0000 0.77520  0.02938  0.27520  Biso   1.000  C
  H421     1.0000 0.76700  0.04950  0.26700  Biso   1.000  H
  C609     1.0000 0.81311  0.06180  0.31311  Biso   1.000  C
  H422     1.0000 0.82965  0.05690  0.32965  Biso   1.000  H
  C610     1.0000 0.79919  0.52938  0.79919  Biso   1.000  C
  C611     1.0000 0.77520  0.52938  0.77520  Biso   1.000  C
  H423     1.0000 0.76700  0.54950  0.76700  Biso   1.000  H
  C612     1.0000 0.81311  0.56180  0.81311  Biso   1.000  C
  H424     1.0000 0.82965  0.55690  0.82965  Biso   1.000  H
  C613     1.0000 0.29919  0.52938  0.29919  Biso   1.000  C
  C614     1.0000 0.27520  0.52938  0.27520  Biso   1.000  C
  H425     1.0000 0.26700  0.54950  0.26700  Biso   1.000  H
  C615     1.0000 0.31311  0.56180  0.31311  Biso   1.000  C
  H426     1.0000 0.32965  0.55690  0.32965  Biso   1.000  H
  C616     1.0000 0.79919  0.97062  0.70081  Biso   1.000  C
  C617     1.0000 0.77520  0.97062  0.72480  Biso   1.000  C
  H427     1.0000 0.76700  0.95050  0.73300  Biso   1.000  H
  C618     1.0000 0.81311  0.93820  0.68689  Biso   1.000  C
  H428     1.0000 0.82965  0.94310  0.67035  Biso   1.000  H
  C619     1.0000 0.79919  0.47062  0.20081  Biso   1.000  C
  C620     1.0000 0.77520  0.47062  0.22480  Biso   1.000  C
  H429     1.0000 0.76700  0.45050  0.23300  Biso   1.000  H
  C621     1.0000 0.81311  0.43820  0.18689  Biso   1.000  C
  H430     1.0000 0.82965  0.44310  0.17035  Biso   1.000  H
  C622     1.0000 0.29919  0.97062  0.20081  Biso   1.000  C
  C623     1.0000 0.27520  0.97062  0.22480  Biso   1.000  C
  H431     1.0000 0.26700  0.95050  0.23300  Biso   1.000  H
  C624     1.0000 0.31311  0.93820  0.18689  Biso   1.000  C
  H432     1.0000 0.32965  0.94310  0.17035  Biso   1.000  H
  C625     1.0000 0.20081  0.97062  0.29919  Biso   1.000  C
  C626     1.0000 0.22480  0.97062  0.27520  Biso   1.000  C
  H433     1.0000 0.23300  0.95050  0.26700  Biso   1.000  H
  C627     1.0000 0.18689  0.93820  0.31311  Biso   1.000  C
  H434     1.0000 0.17035  0.94310  0.32965  Biso   1.000  H
  C628     1.0000 0.20081  0.47062  0.79919  Biso   1.000  C
  C629     1.0000 0.22480  0.47062  0.77520  Biso   1.000  C
  H435     1.0000 0.23300  0.45050  0.76700  Biso   1.000  H
  C630     1.0000 0.18689  0.43820  0.81311  Biso   1.000  C
  H436     1.0000 0.17035  0.44310  0.82965  Biso   1.000  H
  C631     1.0000 0.02938  0.29919  0.79919  Biso   1.000  C
  C632     1.0000 0.02938  0.27520  0.77520  Biso   1.000  C
  H437     1.0000 0.04950  0.26700  0.76700  Biso   1.000  H
  C633     1.0000 0.06180  0.31311  0.81311  Biso   1.000  C
  H438     1.0000 0.05690  0.32965  0.82965  Biso   1.000  H
  C634     1.0000 0.52938  0.29919  0.29919  Biso   1.000  C
  C635     1.0000 0.52938  0.27520  0.27520  Biso   1.000  C
  H439     1.0000 0.54950  0.26700  0.26700  Biso   1.000  H
  C636     1.0000 0.56180  0.31311  0.31311  Biso   1.000  C
  H440     1.0000 0.55690  0.32965  0.32965  Biso   1.000  H
  C637     1.0000 0.02938  0.70081  0.20081  Biso   1.000  C
  C638     1.0000 0.02938  0.72480  0.22480  Biso   1.000  C
  H441     1.0000 0.04950  0.73300  0.23300  Biso   1.000  H
  C639     1.0000 0.06180  0.68689  0.18689  Biso   1.000  C
  H442     1.0000 0.05690  0.67035  0.17035  Biso   1.000  H
  C640     1.0000 0.52938  0.70081  0.70081  Biso   1.000  C
  C641     1.0000 0.52938  0.72480  0.72480  Biso   1.000  C
  H443     1.0000 0.54950  0.73300  0.73300  Biso   1.000  H
  C642     1.0000 0.56180  0.68689  0.68689  Biso   1.000  C
  H444     1.0000 0.55690  0.67035  0.67035  Biso   1.000  H
  C643     1.0000 0.52938  0.20081  0.20081  Biso   1.000  C
  C644     1.0000 0.52938  0.22480  0.22480  Biso   1.000  C
  H445     1.0000 0.54950  0.23300  0.23300  Biso   1.000  H
  C645     1.0000 0.56180  0.18689  0.18689  Biso   1.000  C
  H446     1.0000 0.55690  0.17035  0.17035  Biso   1.000  H
  C646     1.0000 0.97062  0.29919  0.20081  Biso   1.000  C
  C647     1.0000 0.97062  0.27520  0.22480  Biso   1.000  C
  H447     1.0000 0.95050  0.26700  0.23300  Biso   1.000  H
  C648     1.0000 0.93820  0.31311  0.18689  Biso   1.000  C
  H448     1.0000 0.94310  0.32965  0.17035  Biso   1.000  H
  C649     1.0000 0.47062  0.29919  0.70081  Biso   1.000  C
  C650     1.0000 0.47062  0.27520  0.72480  Biso   1.000  C
  H449     1.0000 0.45050  0.26700  0.73300  Biso   1.000  H
  C651     1.0000 0.43820  0.31311  0.68689  Biso   1.000  C
  H450     1.0000 0.44310  0.32965  0.67035  Biso   1.000  H
  C652     1.0000 0.97062  0.70081  0.79919  Biso   1.000  C
  C653     1.0000 0.97062  0.72480  0.77520  Biso   1.000  C
  H451     1.0000 0.95050  0.73300  0.76700  Biso   1.000  H
  C654     1.0000 0.93820  0.68689  0.81311  Biso   1.000  C
  H452     1.0000 0.94310  0.67035  0.82965  Biso   1.000  H
  C655     1.0000 0.97062  0.20081  0.29919  Biso   1.000  C
  C656     1.0000 0.97062  0.22480  0.27520  Biso   1.000  C
  H453     1.0000 0.95050  0.23300  0.26700  Biso   1.000  H
  C657     1.0000 0.93820  0.18689  0.31311  Biso   1.000  C
  H454     1.0000 0.94310  0.17035  0.32965  Biso   1.000  H
  C658     1.0000 0.47062  0.70081  0.29919  Biso   1.000  C
  C659     1.0000 0.47062  0.72480  0.27520  Biso   1.000  C
  H455     1.0000 0.45050  0.73300  0.26700  Biso   1.000  H
  C660     1.0000 0.43820  0.68689  0.31311  Biso   1.000  C
  H456     1.0000 0.44310  0.67035  0.32965  Biso   1.000  H
  C661     1.0000 0.79919  0.70081  0.97062  Biso   1.000  C
  C662     1.0000 0.77520  0.72480  0.97062  Biso   1.000  C
  H457     1.0000 0.76700  0.73300  0.95050  Biso   1.000  H
  C663     1.0000 0.81311  0.68689  0.93820  Biso   1.000  C
  H458     1.0000 0.82965  0.67035  0.94310  Biso   1.000  H
  C664     1.0000 0.79919  0.20081  0.47062  Biso   1.000  C
  C665     1.0000 0.77520  0.22480  0.47062  Biso   1.000  C
  H459     1.0000 0.76700  0.23300  0.45050  Biso   1.000  H
  C666     1.0000 0.81311  0.18689  0.43820  Biso   1.000  C
  H460     1.0000 0.82965  0.17035  0.44310  Biso   1.000  H
  C667     1.0000 0.20081  0.79919  0.47062  Biso   1.000  C
  C668     1.0000 0.22480  0.77520  0.47062  Biso   1.000  C
  H461     1.0000 0.23300  0.76700  0.45050  Biso   1.000  H
  C669     1.0000 0.18689  0.81311  0.43820  Biso   1.000  C
  H462     1.0000 0.17035  0.82965  0.44310  Biso   1.000  H
  C670     1.0000 0.20081  0.70081  0.02938  Biso   1.000  C
  C671     1.0000 0.22480  0.72480  0.02938  Biso   1.000  C
  H463     1.0000 0.23300  0.73300  0.04950  Biso   1.000  H
  C672     1.0000 0.18689  0.68689  0.06180  Biso   1.000  C
  H464     1.0000 0.17035  0.67035  0.05690  Biso   1.000  H
  C673     1.0000 0.79919  0.29919  0.02938  Biso   1.000  C
  C674     1.0000 0.77520  0.27520  0.02938  Biso   1.000  C
  H465     1.0000 0.76700  0.26700  0.04950  Biso   1.000  H
  C675     1.0000 0.81311  0.31311  0.06180  Biso   1.000  C
  H466     1.0000 0.82965  0.32965  0.05690  Biso   1.000  H
  C676     1.0000 0.79919  0.79919  0.52938  Biso   1.000  C
  C677     1.0000 0.77520  0.77520  0.52938  Biso   1.000  C
  H467     1.0000 0.76700  0.76700  0.54950  Biso   1.000  H
  C678     1.0000 0.81311  0.81311  0.56180  Biso   1.000  C
  H468     1.0000 0.82965  0.82965  0.55690  Biso   1.000  H
  C679     1.0000 0.97062  0.79919  0.70081  Biso   1.000  C
  C680     1.0000 0.97062  0.77520  0.72480  Biso   1.000  C
  H469     1.0000 0.95050  0.76700  0.73300  Biso   1.000  H
  C681     1.0000 0.93820  0.81311  0.68689  Biso   1.000  C
  H470     1.0000 0.94310  0.82965  0.67035  Biso   1.000  H
  C682     1.0000 0.47062  0.79919  0.20081  Biso   1.000  C
  C683     1.0000 0.47062  0.77520  0.22480  Biso   1.000  C
  H471     1.0000 0.45050  0.76700  0.23300  Biso   1.000  H
  C684     1.0000 0.43820  0.81311  0.18689  Biso   1.000  C
  H472     1.0000 0.44310  0.82965  0.17035  Biso   1.000  H
  C685     1.0000 0.47062  0.20081  0.79919  Biso   1.000  C
  C686     1.0000 0.47062  0.22480  0.77520  Biso   1.000  C
  H473     1.0000 0.45050  0.23300  0.76700  Biso   1.000  H
  C687     1.0000 0.43820  0.18689  0.81311  Biso   1.000  C
  H474     1.0000 0.44310  0.17035  0.82965  Biso   1.000  H
  C688     1.0000 0.02938  0.20081  0.70081  Biso   1.000  C
  C689     1.0000 0.02938  0.22480  0.72480  Biso   1.000  C
  H475     1.0000 0.04950  0.23300  0.73300  Biso   1.000  H
  C690     1.0000 0.06180  0.18689  0.68689  Biso   1.000  C
  H476     1.0000 0.05690  0.17035  0.67035  Biso   1.000  H
  C691     1.0000 0.02938  0.79919  0.29919  Biso   1.000  C
  C692     1.0000 0.02938  0.77520  0.27520  Biso   1.000  C
  H477     1.0000 0.04950  0.76700  0.26700  Biso   1.000  H
  C693     1.0000 0.06180  0.81311  0.31311  Biso   1.000  C
  H478     1.0000 0.05690  0.82965  0.32965  Biso   1.000  H
  C694     1.0000 0.52938  0.79919  0.79919  Biso   1.000  C
  C695     1.0000 0.52938  0.77520  0.77520  Biso   1.000  C
  H479     1.0000 0.54950  0.76700  0.76700  Biso   1.000  H
  C696     1.0000 0.56180  0.81311  0.81311  Biso   1.000  C
  H480     1.0000 0.55690  0.82965  0.82965  Biso   1.000  H
  C697     1.0000 0.70081  0.97062  0.79919  Biso   1.000  C
  C698     1.0000 0.72480  0.97062  0.77520  Biso   1.000  C
  H481     1.0000 0.73300  0.95050  0.76700  Biso   1.000  H
  C699     1.0000 0.68689  0.93820  0.81311  Biso   1.000  C
  H482     1.0000 0.67035  0.94310  0.82965  Biso   1.000  H
  C700     1.0000 0.70081  0.47062  0.29919  Biso   1.000  C
  C701     1.0000 0.72480  0.47062  0.27520  Biso   1.000  C
  H483     1.0000 0.73300  0.45050  0.26700  Biso   1.000  H
  C702     1.0000 0.68689  0.43820  0.31311  Biso   1.000  C
  H484     1.0000 0.67035  0.44310  0.32965  Biso   1.000  H
  C703     1.0000 0.29919  0.47062  0.70081  Biso   1.000  C
  C704     1.0000 0.27520  0.47062  0.72480  Biso   1.000  C
  H485     1.0000 0.26700  0.45050  0.73300  Biso   1.000  H
  C705     1.0000 0.31311  0.43820  0.68689  Biso   1.000  C
  H486     1.0000 0.32965  0.44310  0.67035  Biso   1.000  H
  C706     1.0000 0.70081  0.02938  0.20081  Biso   1.000  C
  C707     1.0000 0.72480  0.02938  0.22480  Biso   1.000  C
  H487     1.0000 0.73300  0.04950  0.23300  Biso   1.000  H
  C708     1.0000 0.68689  0.06180  0.18689  Biso   1.000  C
  H488     1.0000 0.67035  0.05690  0.17035  Biso   1.000  H
  C709     1.0000 0.70081  0.52938  0.70081  Biso   1.000  C
  C710     1.0000 0.72480  0.52938  0.72480  Biso   1.000  C
  H489     1.0000 0.73300  0.54950  0.73300  Biso   1.000  H
  C711     1.0000 0.68689  0.56180  0.68689  Biso   1.000  C
  H490     1.0000 0.67035  0.55690  0.67035  Biso   1.000  H
  C712     1.0000 0.29919  0.02938  0.79919  Biso   1.000  C
  C713     1.0000 0.27520  0.02938  0.77520  Biso   1.000  C
  H491     1.0000 0.26700  0.04950  0.76700  Biso   1.000  H
  C714     1.0000 0.31311  0.06180  0.81311  Biso   1.000  C
  H492     1.0000 0.32965  0.05690  0.82965  Biso   1.000  H
  C715     1.0000 0.70081  0.79919  0.02938  Biso   1.000  C
  C716     1.0000 0.72480  0.77520  0.02938  Biso   1.000  C
  H493     1.0000 0.73300  0.76700  0.04950  Biso   1.000  H
  C717     1.0000 0.68689  0.81311  0.06180  Biso   1.000  C
  H494     1.0000 0.67035  0.82965  0.05690  Biso   1.000  H
  C718     1.0000 0.70081  0.29919  0.52938  Biso   1.000  C
  C719     1.0000 0.72480  0.27520  0.52938  Biso   1.000  C
  H495     1.0000 0.73300  0.26700  0.54950  Biso   1.000  H
  C720     1.0000 0.68689  0.31311  0.56180  Biso   1.000  C
  H496     1.0000 0.67035  0.32965  0.55690  Biso   1.000  H
  C721     1.0000 0.29919  0.70081  0.52938  Biso   1.000  C
  C722     1.0000 0.27520  0.72480  0.52938  Biso   1.000  C
  H497     1.0000 0.26700  0.73300  0.54950  Biso   1.000  H
  C723     1.0000 0.31311  0.68689  0.56180  Biso   1.000  C
  H498     1.0000 0.32965  0.67035  0.55690  Biso   1.000  H
  C724     1.0000 0.70081  0.20081  0.97062  Biso   1.000  C
  C725     1.0000 0.72480  0.22480  0.97062  Biso   1.000  C
  H499     1.0000 0.73300  0.23300  0.95050  Biso   1.000  H
  C726     1.0000 0.68689  0.18689  0.93820  Biso   1.000  C
  H500     1.0000 0.67035  0.17035  0.94310  Biso   1.000  H
  C727     1.0000 0.70081  0.70081  0.47062  Biso   1.000  C
  C728     1.0000 0.72480  0.72480  0.47062  Biso   1.000  C
  H501     1.0000 0.73300  0.73300  0.45050  Biso   1.000  H
  C729     1.0000 0.68689  0.68689  0.43820  Biso   1.000  C
  H502     1.0000 0.67035  0.67035  0.44310  Biso   1.000  H
  C730     1.0000 0.29919  0.79919  0.97062  Biso   1.000  C
  C731     1.0000 0.27520  0.77520  0.97062  Biso   1.000  C
  H503     1.0000 0.26700  0.76700  0.95050  Biso   1.000  H
  C732     1.0000 0.31311  0.81311  0.93820  Biso   1.000  C
  H504     1.0000 0.32965  0.82965  0.94310  Biso   1.000  H
  C733     1.0000 0.79919  0.97062  0.29919  Biso   1.000  C
  C734     1.0000 0.77520  0.97062  0.27520  Biso   1.000  C
  H505     1.0000 0.76700  0.95050  0.26700  Biso   1.000  H
  C735     1.0000 0.81311  0.93820  0.31311  Biso   1.000  C
  H506     1.0000 0.82965  0.94310  0.32965  Biso   1.000  H
  C736     1.0000 0.79919  0.47062  0.79919  Biso   1.000  C
  C737     1.0000 0.77520  0.47062  0.77520  Biso   1.000  C
  H507     1.0000 0.76700  0.45050  0.76700  Biso   1.000  H
  C738     1.0000 0.81311  0.43820  0.81311  Biso   1.000  C
  H508     1.0000 0.82965  0.44310  0.82965  Biso   1.000  H
  C739     1.0000 0.20081  0.97062  0.70081  Biso   1.000  C
  C740     1.0000 0.22480  0.97062  0.72480  Biso   1.000  C
  H509     1.0000 0.23300  0.95050  0.73300  Biso   1.000  H
  C741     1.0000 0.18689  0.93820  0.68689  Biso   1.000  C
  H510     1.0000 0.17035  0.94310  0.67035  Biso   1.000  H
  C742     1.0000 0.20081  0.52938  0.79919  Biso   1.000  C
  C743     1.0000 0.22480  0.52938  0.77520  Biso   1.000  C
  H511     1.0000 0.23300  0.54950  0.76700  Biso   1.000  H
  C744     1.0000 0.18689  0.56180  0.81311  Biso   1.000  C
  H512     1.0000 0.17035  0.55690  0.82965  Biso   1.000  H
  C745     1.0000 0.79919  0.02938  0.70081  Biso   1.000  C
  C746     1.0000 0.77520  0.02938  0.72480  Biso   1.000  C
  H513     1.0000 0.76700  0.04950  0.73300  Biso   1.000  H
  C747     1.0000 0.81311  0.06180  0.68689  Biso   1.000  C
  H514     1.0000 0.82965  0.05690  0.67035  Biso   1.000  H
  C748     1.0000 0.79919  0.52938  0.20081  Biso   1.000  C
  C749     1.0000 0.77520  0.52938  0.22480  Biso   1.000  C
  H515     1.0000 0.76700  0.54950  0.23300  Biso   1.000  H
  C750     1.0000 0.81311  0.56180  0.18689  Biso   1.000  C
  H516     1.0000 0.82965  0.55690  0.17035  Biso   1.000  H
  C751     1.0000 0.97062  0.70081  0.20081  Biso   1.000  C
  C752     1.0000 0.97062  0.72480  0.22480  Biso   1.000  C
  H517     1.0000 0.95050  0.73300  0.23300  Biso   1.000  H
  C753     1.0000 0.93820  0.68689  0.18689  Biso   1.000  C
  H518     1.0000 0.94310  0.67035  0.17035  Biso   1.000  H
  C754     1.0000 0.47062  0.70081  0.70081  Biso   1.000  C
  C755     1.0000 0.47062  0.72480  0.72480  Biso   1.000  C
  H519     1.0000 0.45050  0.73300  0.73300  Biso   1.000  H
  C756     1.0000 0.43820  0.68689  0.68689  Biso   1.000  C
  H520     1.0000 0.44310  0.67035  0.67035  Biso   1.000  H
  C757     1.0000 0.97062  0.29919  0.79919  Biso   1.000  C
  C758     1.0000 0.97062  0.27520  0.77520  Biso   1.000  C
  H521     1.0000 0.95050  0.26700  0.76700  Biso   1.000  H
  C759     1.0000 0.93820  0.31311  0.81311  Biso   1.000  C
  H522     1.0000 0.94310  0.32965  0.82965  Biso   1.000  H
  C760     1.0000 0.02938  0.70081  0.79919  Biso   1.000  C
  C761     1.0000 0.02938  0.72480  0.77520  Biso   1.000  C
  H523     1.0000 0.04950  0.73300  0.76700  Biso   1.000  H
  C762     1.0000 0.06180  0.68689  0.81311  Biso   1.000  C
  H524     1.0000 0.05690  0.67035  0.82965  Biso   1.000  H
  C763     1.0000 0.52938  0.70081  0.29919  Biso   1.000  C
  C764     1.0000 0.52938  0.72480  0.27520  Biso   1.000  C
  H525     1.0000 0.54950  0.73300  0.26700  Biso   1.000  H
  C765     1.0000 0.56180  0.68689  0.31311  Biso   1.000  C
  H526     1.0000 0.55690  0.67035  0.32965  Biso   1.000  H
  C766     1.0000 0.52938  0.29919  0.70081  Biso   1.000  C
  C767     1.0000 0.52938  0.27520  0.72480  Biso   1.000  C
  H527     1.0000 0.54950  0.26700  0.73300  Biso   1.000  H
  C768     1.0000 0.56180  0.31311  0.68689  Biso   1.000  C
  H528     1.0000 0.55690  0.32965  0.67035  Biso   1.000  H
  Ni25     1.0000 0.21488  0.47337  0.02663  Biso   1.000  Ni
  Ni26     1.0000 0.71488  0.47337  0.52663  Biso   1.000  Ni
  Ni27     1.0000 0.78512  0.52663  0.02663  Biso   1.000  Ni
  Ni28     1.0000 0.28512  0.52663  0.52663  Biso   1.000  Ni
  Ni29     1.0000 0.28512  0.02663  0.02663  Biso   1.000  Ni
  Ni30     1.0000 0.78512  0.47337  0.97337  Biso   1.000  Ni
  Ni31     1.0000 0.28512  0.47337  0.47337  Biso   1.000  Ni
  Ni32     1.0000 0.21488  0.52663  0.97337  Biso   1.000  Ni
  Ni33     1.0000 0.21488  0.02663  0.47337  Biso   1.000  Ni
  Ni34     1.0000 0.71488  0.52663  0.47337  Biso   1.000  Ni
  Ni35     1.0000 0.02663  0.21488  0.47337  Biso   1.000  Ni
  Ni36     1.0000 0.02663  0.71488  0.97337  Biso   1.000  Ni
  Ni37     1.0000 0.02663  0.78512  0.52663  Biso   1.000  Ni
  Ni38     1.0000 0.02663  0.28512  0.02663  Biso   1.000  Ni
  Ni39     1.0000 0.97337  0.78512  0.47337  Biso   1.000  Ni
  Ni40     1.0000 0.97337  0.28512  0.97337  Biso   1.000  Ni
  Ni41     1.0000 0.47337  0.28512  0.47337  Biso   1.000  Ni
  Ni42     1.0000 0.97337  0.21488  0.52663  Biso   1.000  Ni
  Ni43     1.0000 0.97337  0.71488  0.02663  Biso   1.000  Ni
  Ni44     1.0000 0.47337  0.21488  0.02663  Biso   1.000  Ni
  Ni45     1.0000 0.47337  0.02663  0.21488  Biso   1.000  Ni
  Ni46     1.0000 0.47337  0.52663  0.71488  Biso   1.000  Ni
  Ni47     1.0000 0.52663  0.02663  0.78512  Biso   1.000  Ni
  Ni48     1.0000 0.52663  0.52663  0.28512  Biso   1.000  Ni
  Ni49     1.0000 0.02663  0.02663  0.28512  Biso   1.000  Ni
  Ni50     1.0000 0.47337  0.97337  0.78512  Biso   1.000  Ni
  Ni51     1.0000 0.47337  0.47337  0.28512  Biso   1.000  Ni
  Ni52     1.0000 0.52663  0.97337  0.21488  Biso   1.000  Ni
  Ni53     1.0000 0.52663  0.47337  0.71488  Biso   1.000  Ni
  Ni54     1.0000 0.02663  0.47337  0.21488  Biso   1.000  Ni
  Ni55     1.0000 0.47337  0.21488  0.97337  Biso   1.000  Ni
  Ni56     1.0000 0.47337  0.71488  0.47337  Biso   1.000  Ni
  Ni57     1.0000 0.52663  0.78512  0.97337  Biso   1.000  Ni
  Ni58     1.0000 0.52663  0.28512  0.47337  Biso   1.000  Ni
  Ni59     1.0000 0.02663  0.78512  0.47337  Biso   1.000  Ni
  Ni60     1.0000 0.47337  0.78512  0.02663  Biso   1.000  Ni
  Ni61     1.0000 0.47337  0.28512  0.52663  Biso   1.000  Ni
  Ni62     1.0000 0.52663  0.21488  0.02663  Biso   1.000  Ni
  Ni63     1.0000 0.52663  0.71488  0.52663  Biso   1.000  Ni
  Ni64     1.0000 0.02663  0.71488  0.02663  Biso   1.000  Ni
  Ni65     1.0000 0.21488  0.02663  0.52663  Biso   1.000  Ni
  Ni66     1.0000 0.71488  0.02663  0.02663  Biso   1.000  Ni
  Ni67     1.0000 0.78512  0.02663  0.47337  Biso   1.000  Ni
  Ni68     1.0000 0.28512  0.02663  0.97337  Biso   1.000  Ni
  Ni69     1.0000 0.78512  0.97337  0.52663  Biso   1.000  Ni
  Ni70     1.0000 0.78512  0.47337  0.02663  Biso   1.000  Ni
  Ni71     1.0000 0.28512  0.97337  0.02663  Biso   1.000  Ni
  Ni72     1.0000 0.21488  0.97337  0.47337  Biso   1.000  Ni
  Ni73     1.0000 0.71488  0.97337  0.97337  Biso   1.000  Ni
  Ni74     1.0000 0.71488  0.47337  0.47337  Biso   1.000  Ni
  Ni75     1.0000 0.02663  0.47337  0.78512  Biso   1.000  Ni
  Ni76     1.0000 0.02663  0.97337  0.28512  Biso   1.000  Ni
  Ni77     1.0000 0.02663  0.52663  0.21488  Biso   1.000  Ni
  Ni78     1.0000 0.02663  0.02663  0.71488  Biso   1.000  Ni
  Ni79     1.0000 0.97337  0.47337  0.21488  Biso   1.000  Ni
  Ni80     1.0000 0.97337  0.97337  0.71488  Biso   1.000  Ni
  Ni81     1.0000 0.47337  0.47337  0.71488  Biso   1.000  Ni
  Ni82     1.0000 0.97337  0.52663  0.78512  Biso   1.000  Ni
  Ni83     1.0000 0.97337  0.02663  0.28512  Biso   1.000  Ni
  Ni84     1.0000 0.47337  0.02663  0.78512  Biso   1.000  Ni
  Ni85     1.0000 0.78512  0.52663  0.97337  Biso   1.000  Ni
  Ni86     1.0000 0.28512  0.52663  0.47337  Biso   1.000  Ni
  Ni87     1.0000 0.21488  0.47337  0.97337  Biso   1.000  Ni
  Ni88     1.0000 0.21488  0.52663  0.02663  Biso   1.000  Ni
  Ni89     1.0000 0.71488  0.52663  0.52663  Biso   1.000  Ni
  Ni90     1.0000 0.28512  0.47337  0.52663  Biso   1.000  Ni
  Ni91     1.0000 0.97337  0.78512  0.52663  Biso   1.000  Ni
  Ni92     1.0000 0.97337  0.28512  0.02663  Biso   1.000  Ni
  Ni93     1.0000 0.97337  0.21488  0.47337  Biso   1.000  Ni
  Ni94     1.0000 0.97337  0.71488  0.97337  Biso   1.000  Ni
  Ni95     1.0000 0.02663  0.21488  0.52663  Biso   1.000  Ni
  Ni96     1.0000 0.02663  0.28512  0.97337  Biso   1.000  Ni
  Ni97     1.0000 0.52663  0.97337  0.78512  Biso   1.000  Ni
  Ni98     1.0000 0.52663  0.47337  0.28512  Biso   1.000  Ni
  Ni99     1.0000 0.47337  0.97337  0.21488  Biso   1.000  Ni
  Ni100    1.0000 0.52663  0.02663  0.21488  Biso   1.000  Ni
  Ni101    1.0000 0.52663  0.52663  0.71488  Biso   1.000  Ni
  Ni102    1.0000 0.47337  0.52663  0.28512  Biso   1.000  Ni
  Ni103    1.0000 0.52663  0.78512  0.02663  Biso   1.000  Ni
  Ni104    1.0000 0.52663  0.28512  0.52663  Biso   1.000  Ni
  Ni105    1.0000 0.47337  0.71488  0.52663  Biso   1.000  Ni
  Ni106    1.0000 0.52663  0.21488  0.97337  Biso   1.000  Ni
  Ni107    1.0000 0.52663  0.71488  0.47337  Biso   1.000  Ni
  Ni108    1.0000 0.47337  0.78512  0.97337  Biso   1.000  Ni
  Ni109    1.0000 0.78512  0.97337  0.47337  Biso   1.000  Ni
  Ni110    1.0000 0.28512  0.97337  0.97337  Biso   1.000  Ni
  Ni111    1.0000 0.21488  0.97337  0.52663  Biso   1.000  Ni
  Ni112    1.0000 0.71488  0.97337  0.02663  Biso   1.000  Ni
  Ni113    1.0000 0.71488  0.02663  0.97337  Biso   1.000  Ni
  Ni114    1.0000 0.78512  0.02663  0.52663  Biso   1.000  Ni
  Ni115    1.0000 0.97337  0.52663  0.21488  Biso   1.000  Ni
  Ni116    1.0000 0.97337  0.02663  0.71488  Biso   1.000  Ni
  Ni117    1.0000 0.97337  0.47337  0.78512  Biso   1.000  Ni
  Ni118    1.0000 0.97337  0.97337  0.28512  Biso   1.000  Ni
  Ni119    1.0000 0.02663  0.52663  0.78512  Biso   1.000  Ni
  Ni120    1.0000 0.02663  0.97337  0.71488  Biso   1.000  Ni
