data_image0
_cell_length_a       34.026
_cell_length_b       15.046
_cell_length_c       30.424
_cell_angle_alpha    90
_cell_angle_beta     100.625
_cell_angle_gamma    90

_symmetry_space_group_name_H-M    "P 1"
_symmetry_int_tables_number       1

loop_
  _symmetry_equiv_pos_as_xyz
  'x, y, z'

loop_
  _atom_site_label
  _atom_site_occupancy
  _atom_site_fract_x
  _atom_site_fract_y
  _atom_site_fract_z
  _atom_site_thermal_displace_type
  _atom_site_B_iso_or_equiv
  _atom_site_type_symbol
  Zn1      1.0000 0.08216  0.62490  0.09429  Biso   1.000  Zn
  I1       1.0000 0.12053  0.73646  0.05685  Biso   1.000  I
  I2       1.0000 0.02607  0.65877  0.13594  Biso   1.000  I
  Zn2      1.0000 0.36960  0.59790  0.44370  Biso   1.000  Zn
  I3       1.0000 0.38920  0.73754  0.40604  Biso   1.000  I
  I4       1.0000 0.34376  0.59510  0.51679  Biso   1.000  I
  Zn3      1.0000 0.17667  0.85730  0.27457  Biso   1.000  Zn
  I5       1.0000 0.24065  0.77286  0.30374  Biso   1.000  I
  I6       1.0000 0.13504  0.83048  0.19717  Biso   1.000  I
  N1       1.0000 0.12178  0.55100  0.14033  Biso   1.000  N
  C1       1.0000 0.11430  0.46560  0.14720  Biso   1.000  C
  H1       1.0000 0.09320  0.43720  0.12730  Biso   1.000  H
  C2       1.0000 0.13550  0.41660  0.18170  Biso   1.000  C
  H2       1.0000 0.12880  0.35620  0.18550  Biso   1.000  H
  C3       1.0000 0.16650  0.45550  0.21060  Biso   1.000  C
  C4       1.0000 0.17530  0.54360  0.20260  Biso   1.000  C
  H3       1.0000 0.19680  0.57300  0.22140  Biso   1.000  H
  C5       1.0000 0.15240  0.58770  0.16710  Biso   1.000  C
  H4       1.0000 0.15900  0.64760  0.16170  Biso   1.000  H
  C6       1.0000 0.18950  0.40560  0.24790  Biso   1.000  C
  N2       1.0000 0.17937  0.31940  0.25110  Biso   1.000  N
  C7       1.0000 0.20290  0.27460  0.28470  Biso   1.000  C
  N3       1.0000 0.23187  0.30920  0.31460  Biso   1.000  N
  C8       1.0000 0.23800  0.39580  0.30930  Biso   1.000  C
  N4       1.0000 0.21826  0.44670  0.27570  Biso   1.000  N
  C9       1.0000 0.19660  0.17670  0.28410  Biso   1.000  C
  C10      1.0000 0.16740  0.13860  0.25220  Biso   1.000  C
  H5       1.0000 0.15040  0.17470  0.23120  Biso   1.000  H
  C11      1.0000 0.16310  0.04800  0.25110  Biso   1.000  C
  H6       1.0000 0.14280  0.02300  0.22890  Biso   1.000  H
  N5       1.0000 0.18570  0.99290  0.27940  Biso   1.000  N
  C12      1.0000 0.21410  0.03040  0.31030  Biso   1.000  C
  H7       1.0000 0.23090  0.99250  0.33060  Biso   1.000  H
  C13      1.0000 0.22020  0.12070  0.31410  Biso   1.000  C
  H8       1.0000 0.24040  0.14430  0.33690  Biso   1.000  H
  C14      1.0000 0.26860  0.44220  0.34260  Biso   1.000  C
  C15      1.0000 0.28950  0.39800  0.37890  Biso   1.000  C
  H9       1.0000 0.28490  0.33670  0.38360  Biso   1.000  H
  C16      1.0000 0.31730  0.44480  0.40840  Biso   1.000  C
  H10      1.0000 0.33090  0.41500  0.43430  Biso   1.000  H
  N6       1.0000 0.32630  0.53060  0.40260  Biso   1.000  N
  C17      1.0000 0.30550  0.57130  0.36680  Biso   1.000  C
  H11      1.0000 0.31120  0.63200  0.36220  Biso   1.000  H
  C18      1.0000 0.27680  0.53120  0.33660  Biso   1.000  C
  H12      1.0000 0.26250  0.56340  0.31180  Biso   1.000  H
  N7       1.0000 0.06470  0.52350  0.04860  Biso   1.000  N
  C19      1.0000 0.03330  0.47010  0.05080  Biso   1.000  C
  H13      1.0000 0.01530  0.48510  0.07010  Biso   1.000  H
  C20      1.0000 0.02680  0.39260  0.02480  Biso   1.000  C
  H14      1.0000 0.00460  0.35560  0.02650  Biso   1.000  H
  C21      1.0000 0.05200  0.37090  0.99780  Biso   1.000  C
  C22      1.0000 0.08370  0.42710  0.99480  Biso   1.000  C
  H15      1.0000 0.10150  0.41460  0.97490  Biso   1.000  H
  C23      1.0000 0.08870  0.50230  0.02170  Biso   1.000  C
  H16      1.0000 0.11080  0.54010  0.02040  Biso   1.000  H
  C24      1.0000 0.04660  0.28850  0.96960  Biso   1.000  C
  N8       1.0000 0.07120  0.27840  0.94050  Biso   1.000  N
  C25      1.0000 0.06460  0.20490  0.91420  Biso   1.000  C
  N9       1.0000 0.03540  0.14700  0.91640  Biso   1.000  N
  C26      1.0000 0.01370  0.16320  0.94710  Biso   1.000  C
  N10      1.0000 0.01810  0.23330  0.97560  Biso   1.000  N
  C27      1.0000 0.09110  0.19110  0.88170  Biso   1.000  C
  C28      1.0000 0.12730  0.23470  0.88470  Biso   1.000  C
  H17      1.0000 0.13550  0.27580  0.90830  Biso   1.000  H
  C29      1.0000 0.15110  0.22000  0.85490  Biso   1.000  C
  H18      1.0000 0.17530  0.25240  0.85750  Biso   1.000  H
  N11      1.0000 0.14160  0.16100  0.82170  Biso   1.000  N
  C30      1.0000 0.10820  0.11610  0.81960  Biso   1.000  C
  H19      1.0000 0.10190  0.07310  0.79650  Biso   1.000  H
  C31      1.0000 0.08170  0.12660  0.84810  Biso   1.000  C
  H20      1.0000 0.05800  0.09180  0.84530  Biso   1.000  H
  C32      1.0000 0.98010  0.10260  0.95050  Biso   1.000  C
  C33      1.0000 0.96290  0.05420  0.91170  Biso   1.000  C
  H21      1.0000 0.97230  0.05950  0.88430  Biso   1.000  H
  C34      1.0000 0.93120  0.99810  0.91640  Biso   1.000  C
  H22      1.0000 0.91980  0.96420  0.89090  Biso   1.000  H
  N12      1.0000 0.91640  0.98800  0.95060  Biso   1.000  N
  C35      1.0000 0.93170  0.03660  0.98740  Biso   1.000  C
  H23      1.0000 0.92070  0.03200  0.01390  Biso   1.000  H
  C36      1.0000 0.96380  0.09370  0.98580  Biso   1.000  C
  H24      1.0000 0.97430  0.12760  0.01170  Biso   1.000  H
  Zn4      1.0000 0.36410  0.59090  0.45980  Biso   1.000  Zn
  I7       1.0000 0.37960  0.73850  0.42620  Biso   1.000  I
  I8       1.0000 0.34130  0.56230  0.53190  Biso   1.000  I
  Zn5      1.0000 0.58216  0.12490  0.09429  Biso   1.000  Zn
  I9       1.0000 0.62053  0.23646  0.05685  Biso   1.000  I
  I10      1.0000 0.52607  0.15877  0.13594  Biso   1.000  I
  Zn6      1.0000 0.86960  0.09790  0.44370  Biso   1.000  Zn
  I11      1.0000 0.88920  0.23754  0.40604  Biso   1.000  I
  I12      1.0000 0.84376  0.09510  0.51679  Biso   1.000  I
  Zn7      1.0000 0.67667  0.35730  0.27457  Biso   1.000  Zn
  I13      1.0000 0.74065  0.27286  0.30374  Biso   1.000  I
  I14      1.0000 0.63504  0.33048  0.19717  Biso   1.000  I
  N13      1.0000 0.62178  0.05100  0.14033  Biso   1.000  N
  C37      1.0000 0.61430  0.96560  0.14720  Biso   1.000  C
  H25      1.0000 0.59320  0.93720  0.12730  Biso   1.000  H
  C38      1.0000 0.63550  0.91660  0.18170  Biso   1.000  C
  H26      1.0000 0.62880  0.85620  0.18550  Biso   1.000  H
  C39      1.0000 0.66650  0.95550  0.21060  Biso   1.000  C
  C40      1.0000 0.67530  0.04360  0.20260  Biso   1.000  C
  H27      1.0000 0.69680  0.07300  0.22140  Biso   1.000  H
  C41      1.0000 0.65240  0.08770  0.16710  Biso   1.000  C
  H28      1.0000 0.65900  0.14760  0.16170  Biso   1.000  H
  C42      1.0000 0.68950  0.90560  0.24790  Biso   1.000  C
  N14      1.0000 0.67937  0.81940  0.25110  Biso   1.000  N
  C43      1.0000 0.70290  0.77460  0.28470  Biso   1.000  C
  N15      1.0000 0.73187  0.80920  0.31460  Biso   1.000  N
  C44      1.0000 0.73800  0.89580  0.30930  Biso   1.000  C
  N16      1.0000 0.71826  0.94670  0.27570  Biso   1.000  N
  C45      1.0000 0.69660  0.67670  0.28410  Biso   1.000  C
  C46      1.0000 0.66740  0.63860  0.25220  Biso   1.000  C
  H29      1.0000 0.65040  0.67470  0.23120  Biso   1.000  H
  C47      1.0000 0.66310  0.54800  0.25110  Biso   1.000  C
  H30      1.0000 0.64280  0.52300  0.22890  Biso   1.000  H
  N17      1.0000 0.68570  0.49290  0.27940  Biso   1.000  N
  C48      1.0000 0.71410  0.53040  0.31030  Biso   1.000  C
  H31      1.0000 0.73090  0.49250  0.33060  Biso   1.000  H
  C49      1.0000 0.72020  0.62070  0.31410  Biso   1.000  C
  H32      1.0000 0.74040  0.64430  0.33690  Biso   1.000  H
  C50      1.0000 0.76860  0.94220  0.34260  Biso   1.000  C
  C51      1.0000 0.78950  0.89800  0.37890  Biso   1.000  C
  H33      1.0000 0.78490  0.83670  0.38360  Biso   1.000  H
  C52      1.0000 0.81730  0.94480  0.40840  Biso   1.000  C
  H34      1.0000 0.83090  0.91500  0.43430  Biso   1.000  H
  N18      1.0000 0.82630  0.03060  0.40260  Biso   1.000  N
  C53      1.0000 0.80550  0.07130  0.36680  Biso   1.000  C
  H35      1.0000 0.81120  0.13200  0.36220  Biso   1.000  H
  C54      1.0000 0.77680  0.03120  0.33660  Biso   1.000  C
  H36      1.0000 0.76250  0.06340  0.31180  Biso   1.000  H
  N19      1.0000 0.56470  0.02350  0.04860  Biso   1.000  N
  C55      1.0000 0.53330  0.97010  0.05080  Biso   1.000  C
  H37      1.0000 0.51530  0.98510  0.07010  Biso   1.000  H
  C56      1.0000 0.52680  0.89260  0.02480  Biso   1.000  C
  H38      1.0000 0.50460  0.85560  0.02650  Biso   1.000  H
  C57      1.0000 0.55200  0.87090  0.99780  Biso   1.000  C
  C58      1.0000 0.58370  0.92710  0.99480  Biso   1.000  C
  H39      1.0000 0.60150  0.91460  0.97490  Biso   1.000  H
  C59      1.0000 0.58870  0.00230  0.02170  Biso   1.000  C
  H40      1.0000 0.61080  0.04010  0.02040  Biso   1.000  H
  C60      1.0000 0.54660  0.78850  0.96960  Biso   1.000  C
  N20      1.0000 0.57120  0.77840  0.94050  Biso   1.000  N
  C61      1.0000 0.56460  0.70490  0.91420  Biso   1.000  C
  N21      1.0000 0.53540  0.64700  0.91640  Biso   1.000  N
  C62      1.0000 0.51370  0.66320  0.94710  Biso   1.000  C
  N22      1.0000 0.51810  0.73330  0.97560  Biso   1.000  N
  C63      1.0000 0.59110  0.69110  0.88170  Biso   1.000  C
  C64      1.0000 0.62730  0.73470  0.88470  Biso   1.000  C
  H41      1.0000 0.63550  0.77580  0.90830  Biso   1.000  H
  C65      1.0000 0.65110  0.72000  0.85490  Biso   1.000  C
  H42      1.0000 0.67530  0.75240  0.85750  Biso   1.000  H
  N23      1.0000 0.64160  0.66100  0.82170  Biso   1.000  N
  C66      1.0000 0.60820  0.61610  0.81960  Biso   1.000  C
  H43      1.0000 0.60190  0.57310  0.79650  Biso   1.000  H
  C67      1.0000 0.58170  0.62660  0.84810  Biso   1.000  C
  H44      1.0000 0.55800  0.59180  0.84530  Biso   1.000  H
  C68      1.0000 0.48010  0.60260  0.95050  Biso   1.000  C
  C69      1.0000 0.46290  0.55420  0.91170  Biso   1.000  C
  H45      1.0000 0.47230  0.55950  0.88430  Biso   1.000  H
  C70      1.0000 0.43120  0.49810  0.91640  Biso   1.000  C
  H46      1.0000 0.41980  0.46420  0.89090  Biso   1.000  H
  N24      1.0000 0.41640  0.48800  0.95060  Biso   1.000  N
  C71      1.0000 0.43170  0.53660  0.98740  Biso   1.000  C
  H47      1.0000 0.42070  0.53200  0.01390  Biso   1.000  H
  C72      1.0000 0.46380  0.59370  0.98580  Biso   1.000  C
  H48      1.0000 0.47430  0.62760  0.01170  Biso   1.000  H
  Zn8      1.0000 0.86410  0.09090  0.45980  Biso   1.000  Zn
  I15      1.0000 0.87960  0.23850  0.42620  Biso   1.000  I
  I16      1.0000 0.84130  0.06230  0.53190  Biso   1.000  I
  Zn9      1.0000 0.08216  0.37510  0.59429  Biso   1.000  Zn
  I17      1.0000 0.12053  0.26354  0.55685  Biso   1.000  I
  I18      1.0000 0.02607  0.34123  0.63594  Biso   1.000  I
  Zn10     1.0000 0.36960  0.40210  0.94370  Biso   1.000  Zn
  I19      1.0000 0.38920  0.26246  0.90604  Biso   1.000  I
  I20      1.0000 0.34376  0.40490  0.01679  Biso   1.000  I
  Zn11     1.0000 0.17667  0.14270  0.77457  Biso   1.000  Zn
  I21      1.0000 0.24065  0.22714  0.80374  Biso   1.000  I
  I22      1.0000 0.13504  0.16952  0.69717  Biso   1.000  I
  N25      1.0000 0.12178  0.44900  0.64033  Biso   1.000  N
  C73      1.0000 0.11430  0.53440  0.64720  Biso   1.000  C
  H49      1.0000 0.09320  0.56280  0.62730  Biso   1.000  H
  C74      1.0000 0.13550  0.58340  0.68170  Biso   1.000  C
  H50      1.0000 0.12880  0.64380  0.68550  Biso   1.000  H
  C75      1.0000 0.16650  0.54450  0.71060  Biso   1.000  C
  C76      1.0000 0.17530  0.45640  0.70260  Biso   1.000  C
  H51      1.0000 0.19680  0.42700  0.72140  Biso   1.000  H
  C77      1.0000 0.15240  0.41230  0.66710  Biso   1.000  C
  H52      1.0000 0.15900  0.35240  0.66170  Biso   1.000  H
  C78      1.0000 0.18950  0.59440  0.74790  Biso   1.000  C
  N26      1.0000 0.17937  0.68060  0.75110  Biso   1.000  N
  C79      1.0000 0.20290  0.72540  0.78470  Biso   1.000  C
  N27      1.0000 0.23187  0.69080  0.81460  Biso   1.000  N
  C80      1.0000 0.23800  0.60420  0.80930  Biso   1.000  C
  N28      1.0000 0.21826  0.55330  0.77570  Biso   1.000  N
  C81      1.0000 0.19660  0.82330  0.78410  Biso   1.000  C
  C82      1.0000 0.16740  0.86140  0.75220  Biso   1.000  C
  H53      1.0000 0.15040  0.82530  0.73120  Biso   1.000  H
  C83      1.0000 0.16310  0.95200  0.75110  Biso   1.000  C
  H54      1.0000 0.14280  0.97700  0.72890  Biso   1.000  H
  N29      1.0000 0.18570  0.00710  0.77940  Biso   1.000  N
  C84      1.0000 0.21410  0.96960  0.81030  Biso   1.000  C
  H55      1.0000 0.23090  0.00750  0.83060  Biso   1.000  H
  C85      1.0000 0.22020  0.87930  0.81410  Biso   1.000  C
  H56      1.0000 0.24040  0.85570  0.83690  Biso   1.000  H
  C86      1.0000 0.26860  0.55780  0.84260  Biso   1.000  C
  C87      1.0000 0.28950  0.60200  0.87890  Biso   1.000  C
  H57      1.0000 0.28490  0.66330  0.88360  Biso   1.000  H
  C88      1.0000 0.31730  0.55520  0.90840  Biso   1.000  C
  H58      1.0000 0.33090  0.58500  0.93430  Biso   1.000  H
  N30      1.0000 0.32630  0.46940  0.90260  Biso   1.000  N
  C89      1.0000 0.30550  0.42870  0.86680  Biso   1.000  C
  H59      1.0000 0.31120  0.36800  0.86220  Biso   1.000  H
  C90      1.0000 0.27680  0.46880  0.83660  Biso   1.000  C
  H60      1.0000 0.26250  0.43660  0.81180  Biso   1.000  H
  N31      1.0000 0.06470  0.47650  0.54860  Biso   1.000  N
  C91      1.0000 0.03330  0.52990  0.55080  Biso   1.000  C
  H61      1.0000 0.01530  0.51490  0.57010  Biso   1.000  H
  C92      1.0000 0.02680  0.60740  0.52480  Biso   1.000  C
  H62      1.0000 0.00460  0.64440  0.52650  Biso   1.000  H
  C93      1.0000 0.05200  0.62910  0.49780  Biso   1.000  C
  C94      1.0000 0.08370  0.57290  0.49480  Biso   1.000  C
  H63      1.0000 0.10150  0.58540  0.47490  Biso   1.000  H
  C95      1.0000 0.08870  0.49770  0.52170  Biso   1.000  C
  H64      1.0000 0.11080  0.45990  0.52040  Biso   1.000  H
  C96      1.0000 0.04660  0.71150  0.46960  Biso   1.000  C
  N32      1.0000 0.07120  0.72160  0.44050  Biso   1.000  N
  C97      1.0000 0.06460  0.79510  0.41420  Biso   1.000  C
  N33      1.0000 0.03540  0.85300  0.41640  Biso   1.000  N
  C98      1.0000 0.01370  0.83680  0.44710  Biso   1.000  C
  N34      1.0000 0.01810  0.76670  0.47560  Biso   1.000  N
  C99      1.0000 0.09110  0.80890  0.38170  Biso   1.000  C
  C100     1.0000 0.12730  0.76530  0.38470  Biso   1.000  C
  H65      1.0000 0.13550  0.72420  0.40830  Biso   1.000  H
  C101     1.0000 0.15110  0.78000  0.35490  Biso   1.000  C
  H66      1.0000 0.17530  0.74760  0.35750  Biso   1.000  H
  N35      1.0000 0.14160  0.83900  0.32170  Biso   1.000  N
  C102     1.0000 0.10820  0.88390  0.31960  Biso   1.000  C
  H67      1.0000 0.10190  0.92690  0.29650  Biso   1.000  H
  C103     1.0000 0.08170  0.87340  0.34810  Biso   1.000  C
  H68      1.0000 0.05800  0.90820  0.34530  Biso   1.000  H
  C104     1.0000 0.98010  0.89740  0.45050  Biso   1.000  C
  C105     1.0000 0.96290  0.94580  0.41170  Biso   1.000  C
  H69      1.0000 0.97230  0.94050  0.38430  Biso   1.000  H
  C106     1.0000 0.93120  0.00190  0.41640  Biso   1.000  C
  H70      1.0000 0.91980  0.03580  0.39090  Biso   1.000  H
  N36      1.0000 0.91640  0.01200  0.45060  Biso   1.000  N
  C107     1.0000 0.93170  0.96340  0.48740  Biso   1.000  C
  H71      1.0000 0.92070  0.96800  0.51390  Biso   1.000  H
  C108     1.0000 0.96380  0.90630  0.48580  Biso   1.000  C
  H72      1.0000 0.97430  0.87240  0.51170  Biso   1.000  H
  Zn12     1.0000 0.36410  0.40910  0.95980  Biso   1.000  Zn
  I23      1.0000 0.37960  0.26150  0.92620  Biso   1.000  I
  I24      1.0000 0.34130  0.43770  0.03190  Biso   1.000  I
  Zn13     1.0000 0.58216  0.87510  0.59429  Biso   1.000  Zn
  I25      1.0000 0.62053  0.76354  0.55685  Biso   1.000  I
  I26      1.0000 0.52607  0.84123  0.63594  Biso   1.000  I
  Zn14     1.0000 0.86960  0.90210  0.94370  Biso   1.000  Zn
  I27      1.0000 0.88920  0.76246  0.90604  Biso   1.000  I
  I28      1.0000 0.84376  0.90490  0.01679  Biso   1.000  I
  Zn15     1.0000 0.67667  0.64270  0.77457  Biso   1.000  Zn
  I29      1.0000 0.74065  0.72714  0.80374  Biso   1.000  I
  I30      1.0000 0.63504  0.66952  0.69717  Biso   1.000  I
  N37      1.0000 0.62178  0.94900  0.64033  Biso   1.000  N
  C109     1.0000 0.61430  0.03440  0.64720  Biso   1.000  C
  H73      1.0000 0.59320  0.06280  0.62730  Biso   1.000  H
  C110     1.0000 0.63550  0.08340  0.68170  Biso   1.000  C
  H74      1.0000 0.62880  0.14380  0.68550  Biso   1.000  H
  C111     1.0000 0.66650  0.04450  0.71060  Biso   1.000  C
  C112     1.0000 0.67530  0.95640  0.70260  Biso   1.000  C
  H75      1.0000 0.69680  0.92700  0.72140  Biso   1.000  H
  C113     1.0000 0.65240  0.91230  0.66710  Biso   1.000  C
  H76      1.0000 0.65900  0.85240  0.66170  Biso   1.000  H
  C114     1.0000 0.68950  0.09440  0.74790  Biso   1.000  C
  N38      1.0000 0.67937  0.18060  0.75110  Biso   1.000  N
  C115     1.0000 0.70290  0.22540  0.78470  Biso   1.000  C
  N39      1.0000 0.73187  0.19080  0.81460  Biso   1.000  N
  C116     1.0000 0.73800  0.10420  0.80930  Biso   1.000  C
  N40      1.0000 0.71826  0.05330  0.77570  Biso   1.000  N
  C117     1.0000 0.69660  0.32330  0.78410  Biso   1.000  C
  C118     1.0000 0.66740  0.36140  0.75220  Biso   1.000  C
  H77      1.0000 0.65040  0.32530  0.73120  Biso   1.000  H
  C119     1.0000 0.66310  0.45200  0.75110  Biso   1.000  C
  H78      1.0000 0.64280  0.47700  0.72890  Biso   1.000  H
  N41      1.0000 0.68570  0.50710  0.77940  Biso   1.000  N
  C120     1.0000 0.71410  0.46960  0.81030  Biso   1.000  C
  H79      1.0000 0.73090  0.50750  0.83060  Biso   1.000  H
  C121     1.0000 0.72020  0.37930  0.81410  Biso   1.000  C
  H80      1.0000 0.74040  0.35570  0.83690  Biso   1.000  H
  C122     1.0000 0.76860  0.05780  0.84260  Biso   1.000  C
  C123     1.0000 0.78950  0.10200  0.87890  Biso   1.000  C
  H81      1.0000 0.78490  0.16330  0.88360  Biso   1.000  H
  C124     1.0000 0.81730  0.05520  0.90840  Biso   1.000  C
  H82      1.0000 0.83090  0.08500  0.93430  Biso   1.000  H
  N42      1.0000 0.82630  0.96940  0.90260  Biso   1.000  N
  C125     1.0000 0.80550  0.92870  0.86680  Biso   1.000  C
  H83      1.0000 0.81120  0.86800  0.86220  Biso   1.000  H
  C126     1.0000 0.77680  0.96880  0.83660  Biso   1.000  C
  H84      1.0000 0.76250  0.93660  0.81180  Biso   1.000  H
  N43      1.0000 0.56470  0.97650  0.54860  Biso   1.000  N
  C127     1.0000 0.53330  0.02990  0.55080  Biso   1.000  C
  H85      1.0000 0.51530  0.01490  0.57010  Biso   1.000  H
  C128     1.0000 0.52680  0.10740  0.52480  Biso   1.000  C
  H86      1.0000 0.50460  0.14440  0.52650  Biso   1.000  H
  C129     1.0000 0.55200  0.12910  0.49780  Biso   1.000  C
  C130     1.0000 0.58370  0.07290  0.49480  Biso   1.000  C
  H87      1.0000 0.60150  0.08540  0.47490  Biso   1.000  H
  C131     1.0000 0.58870  0.99770  0.52170  Biso   1.000  C
  H88      1.0000 0.61080  0.95990  0.52040  Biso   1.000  H
  C132     1.0000 0.54660  0.21150  0.46960  Biso   1.000  C
  N44      1.0000 0.57120  0.22160  0.44050  Biso   1.000  N
  C133     1.0000 0.56460  0.29510  0.41420  Biso   1.000  C
  N45      1.0000 0.53540  0.35300  0.41640  Biso   1.000  N
  C134     1.0000 0.51370  0.33680  0.44710  Biso   1.000  C
  N46      1.0000 0.51810  0.26670  0.47560  Biso   1.000  N
  C135     1.0000 0.59110  0.30890  0.38170  Biso   1.000  C
  C136     1.0000 0.62730  0.26530  0.38470  Biso   1.000  C
  H89      1.0000 0.63550  0.22420  0.40830  Biso   1.000  H
  C137     1.0000 0.65110  0.28000  0.35490  Biso   1.000  C
  H90      1.0000 0.67530  0.24760  0.35750  Biso   1.000  H
  N47      1.0000 0.64160  0.33900  0.32170  Biso   1.000  N
  C138     1.0000 0.60820  0.38390  0.31960  Biso   1.000  C
  H91      1.0000 0.60190  0.42690  0.29650  Biso   1.000  H
  C139     1.0000 0.58170  0.37340  0.34810  Biso   1.000  C
  H92      1.0000 0.55800  0.40820  0.34530  Biso   1.000  H
  C140     1.0000 0.48010  0.39740  0.45050  Biso   1.000  C
  C141     1.0000 0.46290  0.44580  0.41170  Biso   1.000  C
  H93      1.0000 0.47230  0.44050  0.38430  Biso   1.000  H
  C142     1.0000 0.43120  0.50190  0.41640  Biso   1.000  C
  H94      1.0000 0.41980  0.53580  0.39090  Biso   1.000  H
  N48      1.0000 0.41640  0.51200  0.45060  Biso   1.000  N
  C143     1.0000 0.43170  0.46340  0.48740  Biso   1.000  C
  H95      1.0000 0.42070  0.46800  0.51390  Biso   1.000  H
  C144     1.0000 0.46380  0.40630  0.48580  Biso   1.000  C
  H96      1.0000 0.47430  0.37240  0.51170  Biso   1.000  H
  Zn16     1.0000 0.86410  0.90910  0.95980  Biso   1.000  Zn
  I31      1.0000 0.87960  0.76150  0.92620  Biso   1.000  I
  I32      1.0000 0.84130  0.93770  0.03190  Biso   1.000  I
  Zn17     1.0000 0.91784  0.62490  0.40571  Biso   1.000  Zn
  I33      1.0000 0.87947  0.73646  0.44315  Biso   1.000  I
  I34      1.0000 0.97393  0.65877  0.36406  Biso   1.000  I
  Zn18     1.0000 0.63040  0.59790  0.05630  Biso   1.000  Zn
  I35      1.0000 0.61080  0.73754  0.09396  Biso   1.000  I
  I36      1.0000 0.65624  0.59510  0.98321  Biso   1.000  I
  Zn19     1.0000 0.82333  0.85730  0.22543  Biso   1.000  Zn
  I37      1.0000 0.75935  0.77286  0.19626  Biso   1.000  I
  I38      1.0000 0.86496  0.83048  0.30283  Biso   1.000  I
  N49      1.0000 0.87822  0.55100  0.35967  Biso   1.000  N
  C145     1.0000 0.88570  0.46560  0.35280  Biso   1.000  C
  H97      1.0000 0.90680  0.43720  0.37270  Biso   1.000  H
  C146     1.0000 0.86450  0.41660  0.31830  Biso   1.000  C
  H98      1.0000 0.87120  0.35620  0.31450  Biso   1.000  H
  C147     1.0000 0.83350  0.45550  0.28940  Biso   1.000  C
  C148     1.0000 0.82470  0.54360  0.29740  Biso   1.000  C
  H99      1.0000 0.80320  0.57300  0.27860  Biso   1.000  H
  C149     1.0000 0.84760  0.58770  0.33290  Biso   1.000  C
  H100     1.0000 0.84100  0.64760  0.33830  Biso   1.000  H
  C150     1.0000 0.81050  0.40560  0.25210  Biso   1.000  C
  N50      1.0000 0.82063  0.31940  0.24890  Biso   1.000  N
  C151     1.0000 0.79710  0.27460  0.21530  Biso   1.000  C
  N51      1.0000 0.76813  0.30920  0.18540  Biso   1.000  N
  C152     1.0000 0.76200  0.39580  0.19070  Biso   1.000  C
  N52      1.0000 0.78174  0.44670  0.22430  Biso   1.000  N
  C153     1.0000 0.80340  0.17670  0.21590  Biso   1.000  C
  C154     1.0000 0.83260  0.13860  0.24780  Biso   1.000  C
  H101     1.0000 0.84960  0.17470  0.26880  Biso   1.000  H
  C155     1.0000 0.83690  0.04800  0.24890  Biso   1.000  C
  H102     1.0000 0.85720  0.02300  0.27110  Biso   1.000  H
  N53      1.0000 0.81430  0.99290  0.22060  Biso   1.000  N
  C156     1.0000 0.78590  0.03040  0.18970  Biso   1.000  C
  H103     1.0000 0.76910  0.99250  0.16940  Biso   1.000  H
  C157     1.0000 0.77980  0.12070  0.18590  Biso   1.000  C
  H104     1.0000 0.75960  0.14430  0.16310  Biso   1.000  H
  C158     1.0000 0.73140  0.44220  0.15740  Biso   1.000  C
  C159     1.0000 0.71050  0.39800  0.12110  Biso   1.000  C
  H105     1.0000 0.71510  0.33670  0.11640  Biso   1.000  H
  C160     1.0000 0.68270  0.44480  0.09160  Biso   1.000  C
  H106     1.0000 0.66910  0.41500  0.06570  Biso   1.000  H
  N54      1.0000 0.67370  0.53060  0.09740  Biso   1.000  N
  C161     1.0000 0.69450  0.57130  0.13320  Biso   1.000  C
  H107     1.0000 0.68880  0.63200  0.13780  Biso   1.000  H
  C162     1.0000 0.72320  0.53120  0.16340  Biso   1.000  C
  H108     1.0000 0.73750  0.56340  0.18820  Biso   1.000  H
  N55      1.0000 0.93530  0.52350  0.45140  Biso   1.000  N
  C163     1.0000 0.96670  0.47010  0.44920  Biso   1.000  C
  H109     1.0000 0.98470  0.48510  0.42990  Biso   1.000  H
  C164     1.0000 0.97320  0.39260  0.47520  Biso   1.000  C
  H110     1.0000 0.99540  0.35560  0.47350  Biso   1.000  H
  C165     1.0000 0.94800  0.37090  0.50220  Biso   1.000  C
  C166     1.0000 0.91630  0.42710  0.50520  Biso   1.000  C
  H111     1.0000 0.89850  0.41460  0.52510  Biso   1.000  H
  C167     1.0000 0.91130  0.50230  0.47830  Biso   1.000  C
  H112     1.0000 0.88920  0.54010  0.47960  Biso   1.000  H
  C168     1.0000 0.95340  0.28850  0.53040  Biso   1.000  C
  N56      1.0000 0.92880  0.27840  0.55950  Biso   1.000  N
  C169     1.0000 0.93540  0.20490  0.58580  Biso   1.000  C
  N57      1.0000 0.96460  0.14700  0.58360  Biso   1.000  N
  C170     1.0000 0.98630  0.16320  0.55290  Biso   1.000  C
  N58      1.0000 0.98190  0.23330  0.52440  Biso   1.000  N
  C171     1.0000 0.90890  0.19110  0.61830  Biso   1.000  C
  C172     1.0000 0.87270  0.23470  0.61530  Biso   1.000  C
  H113     1.0000 0.86450  0.27580  0.59170  Biso   1.000  H
  C173     1.0000 0.84890  0.22000  0.64510  Biso   1.000  C
  H114     1.0000 0.82470  0.25240  0.64250  Biso   1.000  H
  N59      1.0000 0.85840  0.16100  0.67830  Biso   1.000  N
  C174     1.0000 0.89180  0.11610  0.68040  Biso   1.000  C
  H115     1.0000 0.89810  0.07310  0.70350  Biso   1.000  H
  C175     1.0000 0.91830  0.12660  0.65190  Biso   1.000  C
  H116     1.0000 0.94200  0.09180  0.65470  Biso   1.000  H
  C176     1.0000 0.01990  0.10260  0.54950  Biso   1.000  C
  C177     1.0000 0.03710  0.05420  0.58830  Biso   1.000  C
  H117     1.0000 0.02770  0.05950  0.61570  Biso   1.000  H
  C178     1.0000 0.06880  0.99810  0.58360  Biso   1.000  C
  H118     1.0000 0.08020  0.96420  0.60910  Biso   1.000  H
  N60      1.0000 0.08360  0.98800  0.54940  Biso   1.000  N
  C179     1.0000 0.06830  0.03660  0.51260  Biso   1.000  C
  H119     1.0000 0.07930  0.03200  0.48610  Biso   1.000  H
  C180     1.0000 0.03620  0.09370  0.51420  Biso   1.000  C
  H120     1.0000 0.02570  0.12760  0.48830  Biso   1.000  H
  Zn20     1.0000 0.63590  0.59090  0.04020  Biso   1.000  Zn
  I39      1.0000 0.62040  0.73850  0.07380  Biso   1.000  I
  I40      1.0000 0.65870  0.56230  0.96810  Biso   1.000  I
  Zn21     1.0000 0.41784  0.12490  0.40571  Biso   1.000  Zn
  I41      1.0000 0.37947  0.23646  0.44315  Biso   1.000  I
  I42      1.0000 0.47393  0.15877  0.36406  Biso   1.000  I
  Zn22     1.0000 0.13040  0.09790  0.05630  Biso   1.000  Zn
  I43      1.0000 0.11080  0.23754  0.09396  Biso   1.000  I
  I44      1.0000 0.15624  0.09510  0.98321  Biso   1.000  I
  Zn23     1.0000 0.32333  0.35730  0.22543  Biso   1.000  Zn
  I45      1.0000 0.25935  0.27286  0.19626  Biso   1.000  I
  I46      1.0000 0.36496  0.33048  0.30283  Biso   1.000  I
  N61      1.0000 0.37822  0.05100  0.35967  Biso   1.000  N
  C181     1.0000 0.38570  0.96560  0.35280  Biso   1.000  C
  H121     1.0000 0.40680  0.93720  0.37270  Biso   1.000  H
  C182     1.0000 0.36450  0.91660  0.31830  Biso   1.000  C
  H122     1.0000 0.37120  0.85620  0.31450  Biso   1.000  H
  C183     1.0000 0.33350  0.95550  0.28940  Biso   1.000  C
  C184     1.0000 0.32470  0.04360  0.29740  Biso   1.000  C
  H123     1.0000 0.30320  0.07300  0.27860  Biso   1.000  H
  C185     1.0000 0.34760  0.08770  0.33290  Biso   1.000  C
  H124     1.0000 0.34100  0.14760  0.33830  Biso   1.000  H
  C186     1.0000 0.31050  0.90560  0.25210  Biso   1.000  C
  N62      1.0000 0.32063  0.81940  0.24890  Biso   1.000  N
  C187     1.0000 0.29710  0.77460  0.21530  Biso   1.000  C
  N63      1.0000 0.26813  0.80920  0.18540  Biso   1.000  N
  C188     1.0000 0.26200  0.89580  0.19070  Biso   1.000  C
  N64      1.0000 0.28174  0.94670  0.22430  Biso   1.000  N
  C189     1.0000 0.30340  0.67670  0.21590  Biso   1.000  C
  C190     1.0000 0.33260  0.63860  0.24780  Biso   1.000  C
  H125     1.0000 0.34960  0.67470  0.26880  Biso   1.000  H
  C191     1.0000 0.33690  0.54800  0.24890  Biso   1.000  C
  H126     1.0000 0.35720  0.52300  0.27110  Biso   1.000  H
  N65      1.0000 0.31430  0.49290  0.22060  Biso   1.000  N
  C192     1.0000 0.28590  0.53040  0.18970  Biso   1.000  C
  H127     1.0000 0.26910  0.49250  0.16940  Biso   1.000  H
  C193     1.0000 0.27980  0.62070  0.18590  Biso   1.000  C
  H128     1.0000 0.25960  0.64430  0.16310  Biso   1.000  H
  C194     1.0000 0.23140  0.94220  0.15740  Biso   1.000  C
  C195     1.0000 0.21050  0.89800  0.12110  Biso   1.000  C
  H129     1.0000 0.21510  0.83670  0.11640  Biso   1.000  H
  C196     1.0000 0.18270  0.94480  0.09160  Biso   1.000  C
  H130     1.0000 0.16910  0.91500  0.06570  Biso   1.000  H
  N66      1.0000 0.17370  0.03060  0.09740  Biso   1.000  N
  C197     1.0000 0.19450  0.07130  0.13320  Biso   1.000  C
  H131     1.0000 0.18880  0.13200  0.13780  Biso   1.000  H
  C198     1.0000 0.22320  0.03120  0.16340  Biso   1.000  C
  H132     1.0000 0.23750  0.06340  0.18820  Biso   1.000  H
  N67      1.0000 0.43530  0.02350  0.45140  Biso   1.000  N
  C199     1.0000 0.46670  0.97010  0.44920  Biso   1.000  C
  H133     1.0000 0.48470  0.98510  0.42990  Biso   1.000  H
  C200     1.0000 0.47320  0.89260  0.47520  Biso   1.000  C
  H134     1.0000 0.49540  0.85560  0.47350  Biso   1.000  H
  C201     1.0000 0.44800  0.87090  0.50220  Biso   1.000  C
  C202     1.0000 0.41630  0.92710  0.50520  Biso   1.000  C
  H135     1.0000 0.39850  0.91460  0.52510  Biso   1.000  H
  C203     1.0000 0.41130  0.00230  0.47830  Biso   1.000  C
  H136     1.0000 0.38920  0.04010  0.47960  Biso   1.000  H
  C204     1.0000 0.45340  0.78850  0.53040  Biso   1.000  C
  N68      1.0000 0.42880  0.77840  0.55950  Biso   1.000  N
  C205     1.0000 0.43540  0.70490  0.58580  Biso   1.000  C
  N69      1.0000 0.46460  0.64700  0.58360  Biso   1.000  N
  C206     1.0000 0.48630  0.66320  0.55290  Biso   1.000  C
  N70      1.0000 0.48190  0.73330  0.52440  Biso   1.000  N
  C207     1.0000 0.40890  0.69110  0.61830  Biso   1.000  C
  C208     1.0000 0.37270  0.73470  0.61530  Biso   1.000  C
  H137     1.0000 0.36450  0.77580  0.59170  Biso   1.000  H
  C209     1.0000 0.34890  0.72000  0.64510  Biso   1.000  C
  H138     1.0000 0.32470  0.75240  0.64250  Biso   1.000  H
  N71      1.0000 0.35840  0.66100  0.67830  Biso   1.000  N
  C210     1.0000 0.39180  0.61610  0.68040  Biso   1.000  C
  H139     1.0000 0.39810  0.57310  0.70350  Biso   1.000  H
  C211     1.0000 0.41830  0.62660  0.65190  Biso   1.000  C
  H140     1.0000 0.44200  0.59180  0.65470  Biso   1.000  H
  C212     1.0000 0.51990  0.60260  0.54950  Biso   1.000  C
  C213     1.0000 0.53710  0.55420  0.58830  Biso   1.000  C
  H141     1.0000 0.52770  0.55950  0.61570  Biso   1.000  H
  C214     1.0000 0.56880  0.49810  0.58360  Biso   1.000  C
  H142     1.0000 0.58020  0.46420  0.60910  Biso   1.000  H
  N72      1.0000 0.58360  0.48800  0.54940  Biso   1.000  N
  C215     1.0000 0.56830  0.53660  0.51260  Biso   1.000  C
  H143     1.0000 0.57930  0.53200  0.48610  Biso   1.000  H
  C216     1.0000 0.53620  0.59370  0.51420  Biso   1.000  C
  H144     1.0000 0.52570  0.62760  0.48830  Biso   1.000  H
  Zn24     1.0000 0.13590  0.09090  0.04020  Biso   1.000  Zn
  I47      1.0000 0.12040  0.23850  0.07380  Biso   1.000  I
  I48      1.0000 0.15870  0.06230  0.96810  Biso   1.000  I
  Zn25     1.0000 0.91784  0.37510  0.90571  Biso   1.000  Zn
  I49      1.0000 0.87947  0.26354  0.94315  Biso   1.000  I
  I50      1.0000 0.97393  0.34123  0.86406  Biso   1.000  I
  Zn26     1.0000 0.63040  0.40210  0.55630  Biso   1.000  Zn
  I51      1.0000 0.61080  0.26246  0.59396  Biso   1.000  I
  I52      1.0000 0.65624  0.40490  0.48321  Biso   1.000  I
  Zn27     1.0000 0.82333  0.14270  0.72543  Biso   1.000  Zn
  I53      1.0000 0.75935  0.22714  0.69626  Biso   1.000  I
  I54      1.0000 0.86496  0.16952  0.80283  Biso   1.000  I
  N73      1.0000 0.87822  0.44900  0.85967  Biso   1.000  N
  C217     1.0000 0.88570  0.53440  0.85280  Biso   1.000  C
  H145     1.0000 0.90680  0.56280  0.87270  Biso   1.000  H
  C218     1.0000 0.86450  0.58340  0.81830  Biso   1.000  C
  H146     1.0000 0.87120  0.64380  0.81450  Biso   1.000  H
  C219     1.0000 0.83350  0.54450  0.78940  Biso   1.000  C
  C220     1.0000 0.82470  0.45640  0.79740  Biso   1.000  C
  H147     1.0000 0.80320  0.42700  0.77860  Biso   1.000  H
  C221     1.0000 0.84760  0.41230  0.83290  Biso   1.000  C
  H148     1.0000 0.84100  0.35240  0.83830  Biso   1.000  H
  C222     1.0000 0.81050  0.59440  0.75210  Biso   1.000  C
  N74      1.0000 0.82063  0.68060  0.74890  Biso   1.000  N
  C223     1.0000 0.79710  0.72540  0.71530  Biso   1.000  C
  N75      1.0000 0.76813  0.69080  0.68540  Biso   1.000  N
  C224     1.0000 0.76200  0.60420  0.69070  Biso   1.000  C
  N76      1.0000 0.78174  0.55330  0.72430  Biso   1.000  N
  C225     1.0000 0.80340  0.82330  0.71590  Biso   1.000  C
  C226     1.0000 0.83260  0.86140  0.74780  Biso   1.000  C
  H149     1.0000 0.84960  0.82530  0.76880  Biso   1.000  H
  C227     1.0000 0.83690  0.95200  0.74890  Biso   1.000  C
  H150     1.0000 0.85720  0.97700  0.77110  Biso   1.000  H
  N77      1.0000 0.81430  0.00710  0.72060  Biso   1.000  N
  C228     1.0000 0.78590  0.96960  0.68970  Biso   1.000  C
  H151     1.0000 0.76910  0.00750  0.66940  Biso   1.000  H
  C229     1.0000 0.77980  0.87930  0.68590  Biso   1.000  C
  H152     1.0000 0.75960  0.85570  0.66310  Biso   1.000  H
  C230     1.0000 0.73140  0.55780  0.65740  Biso   1.000  C
  C231     1.0000 0.71050  0.60200  0.62110  Biso   1.000  C
  H153     1.0000 0.71510  0.66330  0.61640  Biso   1.000  H
  C232     1.0000 0.68270  0.55520  0.59160  Biso   1.000  C
  H154     1.0000 0.66910  0.58500  0.56570  Biso   1.000  H
  N78      1.0000 0.67370  0.46940  0.59740  Biso   1.000  N
  C233     1.0000 0.69450  0.42870  0.63320  Biso   1.000  C
  H155     1.0000 0.68880  0.36800  0.63780  Biso   1.000  H
  C234     1.0000 0.72320  0.46880  0.66340  Biso   1.000  C
  H156     1.0000 0.73750  0.43660  0.68820  Biso   1.000  H
  N79      1.0000 0.93530  0.47650  0.95140  Biso   1.000  N
  C235     1.0000 0.96670  0.52990  0.94920  Biso   1.000  C
  H157     1.0000 0.98470  0.51490  0.92990  Biso   1.000  H
  C236     1.0000 0.97320  0.60740  0.97520  Biso   1.000  C
  H158     1.0000 0.99540  0.64440  0.97350  Biso   1.000  H
  C237     1.0000 0.94800  0.62910  0.00220  Biso   1.000  C
  C238     1.0000 0.91630  0.57290  0.00520  Biso   1.000  C
  H159     1.0000 0.89850  0.58540  0.02510  Biso   1.000  H
  C239     1.0000 0.91130  0.49770  0.97830  Biso   1.000  C
  H160     1.0000 0.88920  0.45990  0.97960  Biso   1.000  H
  C240     1.0000 0.95340  0.71150  0.03040  Biso   1.000  C
  N80      1.0000 0.92880  0.72160  0.05950  Biso   1.000  N
  C241     1.0000 0.93540  0.79510  0.08580  Biso   1.000  C
  N81      1.0000 0.96460  0.85300  0.08360  Biso   1.000  N
  C242     1.0000 0.98630  0.83680  0.05290  Biso   1.000  C
  N82      1.0000 0.98190  0.76670  0.02440  Biso   1.000  N
  C243     1.0000 0.90890  0.80890  0.11830  Biso   1.000  C
  C244     1.0000 0.87270  0.76530  0.11530  Biso   1.000  C
  H161     1.0000 0.86450  0.72420  0.09170  Biso   1.000  H
  C245     1.0000 0.84890  0.78000  0.14510  Biso   1.000  C
  H162     1.0000 0.82470  0.74760  0.14250  Biso   1.000  H
  N83      1.0000 0.85840  0.83900  0.17830  Biso   1.000  N
  C246     1.0000 0.89180  0.88390  0.18040  Biso   1.000  C
  H163     1.0000 0.89810  0.92690  0.20350  Biso   1.000  H
  C247     1.0000 0.91830  0.87340  0.15190  Biso   1.000  C
  H164     1.0000 0.94200  0.90820  0.15470  Biso   1.000  H
  C248     1.0000 0.01990  0.89740  0.04950  Biso   1.000  C
  C249     1.0000 0.03710  0.94580  0.08830  Biso   1.000  C
  H165     1.0000 0.02770  0.94050  0.11570  Biso   1.000  H
  C250     1.0000 0.06880  0.00190  0.08360  Biso   1.000  C
  H166     1.0000 0.08020  0.03580  0.10910  Biso   1.000  H
  N84      1.0000 0.08360  0.01200  0.04940  Biso   1.000  N
  C251     1.0000 0.06830  0.96340  0.01260  Biso   1.000  C
  H167     1.0000 0.07930  0.96800  0.98610  Biso   1.000  H
  C252     1.0000 0.03620  0.90630  0.01420  Biso   1.000  C
  H168     1.0000 0.02570  0.87240  0.98830  Biso   1.000  H
  Zn28     1.0000 0.63590  0.40910  0.54020  Biso   1.000  Zn
  I55      1.0000 0.62040  0.26150  0.57380  Biso   1.000  I
  I56      1.0000 0.65870  0.43770  0.46810  Biso   1.000  I
  Zn29     1.0000 0.41784  0.87510  0.90571  Biso   1.000  Zn
  I57      1.0000 0.37947  0.76354  0.94315  Biso   1.000  I
  I58      1.0000 0.47393  0.84123  0.86406  Biso   1.000  I
  Zn30     1.0000 0.13040  0.90210  0.55630  Biso   1.000  Zn
  I59      1.0000 0.11080  0.76246  0.59396  Biso   1.000  I
  I60      1.0000 0.15624  0.90490  0.48321  Biso   1.000  I
  Zn31     1.0000 0.32333  0.64270  0.72543  Biso   1.000  Zn
  I61      1.0000 0.25935  0.72714  0.69626  Biso   1.000  I
  I62      1.0000 0.36496  0.66952  0.80283  Biso   1.000  I
  N85      1.0000 0.37822  0.94900  0.85967  Biso   1.000  N
  C253     1.0000 0.38570  0.03440  0.85280  Biso   1.000  C
  H169     1.0000 0.40680  0.06280  0.87270  Biso   1.000  H
  C254     1.0000 0.36450  0.08340  0.81830  Biso   1.000  C
  H170     1.0000 0.37120  0.14380  0.81450  Biso   1.000  H
  C255     1.0000 0.33350  0.04450  0.78940  Biso   1.000  C
  C256     1.0000 0.32470  0.95640  0.79740  Biso   1.000  C
  H171     1.0000 0.30320  0.92700  0.77860  Biso   1.000  H
  C257     1.0000 0.34760  0.91230  0.83290  Biso   1.000  C
  H172     1.0000 0.34100  0.85240  0.83830  Biso   1.000  H
  C258     1.0000 0.31050  0.09440  0.75210  Biso   1.000  C
  N86      1.0000 0.32063  0.18060  0.74890  Biso   1.000  N
  C259     1.0000 0.29710  0.22540  0.71530  Biso   1.000  C
  N87      1.0000 0.26813  0.19080  0.68540  Biso   1.000  N
  C260     1.0000 0.26200  0.10420  0.69070  Biso   1.000  C
  N88      1.0000 0.28174  0.05330  0.72430  Biso   1.000  N
  C261     1.0000 0.30340  0.32330  0.71590  Biso   1.000  C
  C262     1.0000 0.33260  0.36140  0.74780  Biso   1.000  C
  H173     1.0000 0.34960  0.32530  0.76880  Biso   1.000  H
  C263     1.0000 0.33690  0.45200  0.74890  Biso   1.000  C
  H174     1.0000 0.35720  0.47700  0.77110  Biso   1.000  H
  N89      1.0000 0.31430  0.50710  0.72060  Biso   1.000  N
  C264     1.0000 0.28590  0.46960  0.68970  Biso   1.000  C
  H175     1.0000 0.26910  0.50750  0.66940  Biso   1.000  H
  C265     1.0000 0.27980  0.37930  0.68590  Biso   1.000  C
  H176     1.0000 0.25960  0.35570  0.66310  Biso   1.000  H
  C266     1.0000 0.23140  0.05780  0.65740  Biso   1.000  C
  C267     1.0000 0.21050  0.10200  0.62110  Biso   1.000  C
  H177     1.0000 0.21510  0.16330  0.61640  Biso   1.000  H
  C268     1.0000 0.18270  0.05520  0.59160  Biso   1.000  C
  H178     1.0000 0.16910  0.08500  0.56570  Biso   1.000  H
  N90      1.0000 0.17370  0.96940  0.59740  Biso   1.000  N
  C269     1.0000 0.19450  0.92870  0.63320  Biso   1.000  C
  H179     1.0000 0.18880  0.86800  0.63780  Biso   1.000  H
  C270     1.0000 0.22320  0.96880  0.66340  Biso   1.000  C
  H180     1.0000 0.23750  0.93660  0.68820  Biso   1.000  H
  N91      1.0000 0.43530  0.97650  0.95140  Biso   1.000  N
  C271     1.0000 0.46670  0.02990  0.94920  Biso   1.000  C
  H181     1.0000 0.48470  0.01490  0.92990  Biso   1.000  H
  C272     1.0000 0.47320  0.10740  0.97520  Biso   1.000  C
  H182     1.0000 0.49540  0.14440  0.97350  Biso   1.000  H
  C273     1.0000 0.44800  0.12910  0.00220  Biso   1.000  C
  C274     1.0000 0.41630  0.07290  0.00520  Biso   1.000  C
  H183     1.0000 0.39850  0.08540  0.02510  Biso   1.000  H
  C275     1.0000 0.41130  0.99770  0.97830  Biso   1.000  C
  H184     1.0000 0.38920  0.95990  0.97960  Biso   1.000  H
  C276     1.0000 0.45340  0.21150  0.03040  Biso   1.000  C
  N92      1.0000 0.42880  0.22160  0.05950  Biso   1.000  N
  C277     1.0000 0.43540  0.29510  0.08580  Biso   1.000  C
  N93      1.0000 0.46460  0.35300  0.08360  Biso   1.000  N
  C278     1.0000 0.48630  0.33680  0.05290  Biso   1.000  C
  N94      1.0000 0.48190  0.26670  0.02440  Biso   1.000  N
  C279     1.0000 0.40890  0.30890  0.11830  Biso   1.000  C
  C280     1.0000 0.37270  0.26530  0.11530  Biso   1.000  C
  H185     1.0000 0.36450  0.22420  0.09170  Biso   1.000  H
  C281     1.0000 0.34890  0.28000  0.14510  Biso   1.000  C
  H186     1.0000 0.32470  0.24760  0.14250  Biso   1.000  H
  N95      1.0000 0.35840  0.33900  0.17830  Biso   1.000  N
  C282     1.0000 0.39180  0.38390  0.18040  Biso   1.000  C
  H187     1.0000 0.39810  0.42690  0.20350  Biso   1.000  H
  C283     1.0000 0.41830  0.37340  0.15190  Biso   1.000  C
  H188     1.0000 0.44200  0.40820  0.15470  Biso   1.000  H
  C284     1.0000 0.51990  0.39740  0.04950  Biso   1.000  C
  C285     1.0000 0.53710  0.44580  0.08830  Biso   1.000  C
  H189     1.0000 0.52770  0.44050  0.11570  Biso   1.000  H
  C286     1.0000 0.56880  0.50190  0.08360  Biso   1.000  C
  H190     1.0000 0.58020  0.53580  0.10910  Biso   1.000  H
  N96      1.0000 0.58360  0.51200  0.04940  Biso   1.000  N
  C287     1.0000 0.56830  0.46340  0.01260  Biso   1.000  C
  H191     1.0000 0.57930  0.46800  0.98610  Biso   1.000  H
  C288     1.0000 0.53620  0.40630  0.01420  Biso   1.000  C
  H192     1.0000 0.52570  0.37240  0.98830  Biso   1.000  H
  Zn32     1.0000 0.13590  0.90910  0.54020  Biso   1.000  Zn
  I63      1.0000 0.12040  0.76150  0.57380  Biso   1.000  I
  I64      1.0000 0.15870  0.93770  0.46810  Biso   1.000  I
