data_image0
_cell_length_a       26.3796
_cell_length_b       27.5675
_cell_length_c       31.996
_cell_angle_alpha    90
_cell_angle_beta     112.541
_cell_angle_gamma    90

_symmetry_space_group_name_H-M    "P 1"
_symmetry_int_tables_number       1

loop_
  _symmetry_equiv_pos_as_xyz
  'x, y, z'

loop_
  _atom_site_label
  _atom_site_occupancy
  _atom_site_fract_x
  _atom_site_fract_y
  _atom_site_fract_z
  _atom_site_thermal_displace_type
  _atom_site_B_iso_or_equiv
  _atom_site_type_symbol
  Zn1      1.0000 0.14904  0.38988  0.63953  Biso   1.000  Zn
  O1       1.0000 0.07600  0.36730  0.60574  Biso   1.000  O
  O2       1.0000 0.16700  0.44960  0.61690  Biso   1.000  O
  O3       1.0000 0.16670  0.60800  0.20616  Biso   1.000  O
  O4       1.0000 0.70120  0.84300  0.63650  Biso   1.000  O
  Zn2      1.0000 0.03304  0.41992  0.56894  Biso   1.000  Zn
  Zn3      1.0000 0.04202  0.34443  0.64688  Biso   1.000  Zn
  Zn4      1.0000 0.07832  0.31559  0.56532  Biso   1.000  Zn
  C1       1.0000 0.13270  0.47580  0.58510  Biso   1.000  C
  O5       1.0000 0.08200  0.47350  0.57180  Biso   1.000  O
  O6       1.0000 0.98150  0.44970  0.59080  Biso   1.000  O
  O7       1.0000 0.99980  0.59370  0.00520  Biso   1.000  O
  O8       1.0000 0.98700  0.39600  0.64390  Biso   1.000  O
  O9       1.0000 0.09900  0.65550  0.20990  Biso   1.000  O
  O10      1.0000 0.49080  0.79210  0.61360  Biso   1.000  O
  O11      1.0000 0.52830  0.76420  0.56670  Biso   1.000  O
  O12      1.0000 0.65070  0.78630  0.59020  Biso   1.000  O
  O13      1.0000 0.04300  0.66330  0.00086  Biso   1.000  O
  C2       1.0000 0.15520  0.51350  0.56120  Biso   1.000  C
  C3       1.0000 0.97650  0.43790  0.62560  Biso   1.000  C
  C4       1.0000 0.11760  0.53720  0.52380  Biso   1.000  C
  C5       1.0000 0.21070  0.52500  0.57640  Biso   1.000  C
  C6       1.0000 0.95270  0.47400  0.64840  Biso   1.000  C
  C7       1.0000 0.13560  0.57240  0.50150  Biso   1.000  C
  C8       1.0000 0.22860  0.56010  0.55410  Biso   1.000  C
  C9       1.0000 0.95030  0.46350  0.68960  Biso   1.000  C
  C10      1.0000 0.94020  0.51910  0.63080  Biso   1.000  C
  C11      1.0000 0.19100  0.58380  0.51660  Biso   1.000  C
  H1       1.0000 0.96050  0.43220  0.70250  Biso   1.000  H
  C12      1.0000 0.93270  0.49890  0.71270  Biso   1.000  C
  C13      1.0000 0.92490  0.55460  0.65360  Biso   1.000  C
  H2       1.0000 0.94200  0.52630  0.60240  Biso   1.000  H
  C14      1.0000 0.21370  0.61480  0.48910  Biso   1.000  C
  H3       1.0000 0.92910  0.49110  0.74040  Biso   1.000  H
  C15      1.0000 0.92040  0.54570  0.69480  Biso   1.000  C
  H4       1.0000 0.91710  0.58620  0.64080  Biso   1.000  H
  C16      1.0000 0.19100  0.61400  0.44210  Biso   1.000  C
  C17      1.0000 0.25980  0.64300  0.51170  Biso   1.000  C
  C18      1.0000 0.90550  0.58440  0.71890  Biso   1.000  C
  C19      1.0000 0.21440  0.64130  0.41760  Biso   1.000  C
  C20      1.0000 0.28310  0.67040  0.48720  Biso   1.000  C
  C21      1.0000 0.92810  0.58550  0.76670  Biso   1.000  C
  C22      1.0000 0.86880  0.62080  0.69640  Biso   1.000  C
  C23      1.0000 0.26040  0.66960  0.44020  Biso   1.000  C
  C24      1.0000 0.19040  0.64310  0.36810  Biso   1.000  C
  C25      1.0000 0.34070  0.69200  0.51510  Biso   1.000  C
  H5       1.0000 0.95270  0.56060  0.78300  Biso   1.000  H
  C26      1.0000 0.91440  0.62380  0.79100  Biso   1.000  C
  C27      1.0000 0.85370  0.65730  0.71780  Biso   1.000  C
  H6       1.0000 0.85330  0.62020  0.66430  Biso   1.000  H
  C28      1.0000 0.13470  0.64800  0.34230  Biso   1.000  C
  C29      1.0000 0.22690  0.63450  0.34700  Biso   1.000  C
  C30      1.0000 0.38580  0.68690  0.50320  Biso   1.000  C
  C31      1.0000 0.34350  0.72280  0.55030  Biso   1.000  C
  C32      1.0000 0.87840  0.65930  0.76630  Biso   1.000  C
  C33      1.0000 0.93950  0.62410  0.84160  Biso   1.000  C
  C34      1.0000 0.81470  0.69480  0.69160  Biso   1.000  C
  C35      1.0000 0.11530  0.64410  0.29540  Biso   1.000  C
  C36      1.0000 0.20760  0.63070  0.30010  Biso   1.000  C
  C37      1.0000 0.43370  0.71260  0.52640  Biso   1.000  C
  C38      1.0000 0.39140  0.74850  0.57360  Biso   1.000  C
  H7       1.0000 0.86990  0.68550  0.78170  Biso   1.000  H
  C39      1.0000 0.94360  0.58290  0.86650  Biso   1.000  C
  C40      1.0000 0.94640  0.66950  0.86200  Biso   1.000  C
  C41      1.0000 0.77210  0.68370  0.65280  Biso   1.000  C
  C42      1.0000 0.81900  0.74270  0.70620  Biso   1.000  C
  C43      1.0000 0.15180  0.63550  0.27440  Biso   1.000  C
  C44      1.0000 0.43650  0.74340  0.56160  Biso   1.000  C
  H8       1.0000 0.93110  0.55300  0.85130  Biso   1.000  H
  C45      1.0000 0.96510  0.58390  0.91250  Biso   1.000  C
  C46      1.0000 0.95980  0.66750  0.90840  Biso   1.000  C
  H9       1.0000 0.77030  0.65180  0.64110  Biso   1.000  H
  C47      1.0000 0.73140  0.71560  0.62930  Biso   1.000  C
  C48      1.0000 0.78080  0.77660  0.68450  Biso   1.000  C
  H10      1.0000 0.84970  0.75190  0.73240  Biso   1.000  H
  C49      1.0000 0.13670  0.62480  0.22485  Biso   1.000  C
  C50      1.0000 0.48970  0.76750  0.58220  Biso   1.000  C
  H11      1.0000 0.96650  0.55510  0.92920  Biso   1.000  H
  C51      1.0000 0.98540  0.62810  0.93530  Biso   1.000  C
  H12      1.0000 0.70110  0.70570  0.60310  Biso   1.000  H
  C52      1.0000 0.73610  0.76310  0.64540  Biso   1.000  C
  H13      1.0000 0.78430  0.80890  0.69560  Biso   1.000  H
  C53      1.0000 0.00960  0.62940  0.98530  Biso   1.000  C
  C54      1.0000 0.69300  0.80050  0.62160  Biso   1.000  C
  C55      1.0000 0.99030  0.66840  0.91100  Biso   1.000  C
  C56      1.0000 0.96740  0.66520  0.86400  Biso   1.000  C
  C57      1.0000 0.24700  0.57820  0.49060  Biso   1.000  C
  C58      1.0000 0.22280  0.57860  0.44050  Biso   1.000  C
  C59      1.0000 0.25030  0.60360  0.41950  Biso   1.000  C
  C60      1.0000 0.29830  0.62830  0.44220  Biso   1.000  C
  C61      1.0000 0.32040  0.62770  0.49050  Biso   1.000  C
  C62      1.0000 0.29450  0.60090  0.51190  Biso   1.000  C
  C63      1.0000 0.35900  0.66740  0.51150  Biso   1.000  C
  C64      1.0000 0.40100  0.67210  0.49820  Biso   1.000  C
  C65      1.0000 0.44600  0.70160  0.52050  Biso   1.000  C
  C66      1.0000 0.44790  0.72730  0.55770  Biso   1.000  C
  C67      1.0000 0.40570  0.72630  0.57200  Biso   1.000  C
  C68      1.0000 0.36140  0.69280  0.54800  Biso   1.000  C
  C69      1.0000 0.16760  0.61380  0.34310  Biso   1.000  C
  C70      1.0000 0.14580  0.61320  0.29810  Biso   1.000  C
  C71      1.0000 0.17930  0.61050  0.27120  Biso   1.000  C
  C72      1.0000 0.23910  0.61010  0.29460  Biso   1.000  C
  C73      1.0000 0.25800  0.60730  0.34400  Biso   1.000  C
  C74      1.0000 0.22340  0.60700  0.36730  Biso   1.000  C
  C75      1.0000 0.15970  0.55130  0.49660  Biso   1.000  C
  C76      1.0000 0.13080  0.52160  0.51490  Biso   1.000  C
  C77      1.0000 0.24750  0.52350  0.55490  Biso   1.000  C
  C78      1.0000 0.21170  0.50820  0.57460  Biso   1.000  C
  C79      1.0000 0.21670  0.54920  0.51600  Biso   1.000  C
  Zn5      1.0000 0.64904  0.88988  0.63953  Biso   1.000  Zn
  O14      1.0000 0.57600  0.86730  0.60574  Biso   1.000  O
  O15      1.0000 0.66700  0.94960  0.61690  Biso   1.000  O
  O16      1.0000 0.66670  0.10800  0.20616  Biso   1.000  O
  O17      1.0000 0.20120  0.34300  0.63650  Biso   1.000  O
  Zn6      1.0000 0.53304  0.91992  0.56894  Biso   1.000  Zn
  Zn7      1.0000 0.54202  0.84443  0.64688  Biso   1.000  Zn
  Zn8      1.0000 0.57832  0.81559  0.56532  Biso   1.000  Zn
  C80      1.0000 0.63270  0.97580  0.58510  Biso   1.000  C
  O18      1.0000 0.58200  0.97350  0.57180  Biso   1.000  O
  O19      1.0000 0.48150  0.94970  0.59080  Biso   1.000  O
  O20      1.0000 0.49980  0.09370  0.00520  Biso   1.000  O
  O21      1.0000 0.48700  0.89600  0.64390  Biso   1.000  O
  O22      1.0000 0.59900  0.15550  0.20990  Biso   1.000  O
  O23      1.0000 0.99080  0.29210  0.61360  Biso   1.000  O
  O24      1.0000 0.02830  0.26420  0.56670  Biso   1.000  O
  O25      1.0000 0.15070  0.28630  0.59020  Biso   1.000  O
  O26      1.0000 0.54300  0.16330  0.00086  Biso   1.000  O
  C81      1.0000 0.65520  0.01350  0.56120  Biso   1.000  C
  C82      1.0000 0.47650  0.93790  0.62560  Biso   1.000  C
  C83      1.0000 0.61760  0.03720  0.52380  Biso   1.000  C
  C84      1.0000 0.71070  0.02500  0.57640  Biso   1.000  C
  C85      1.0000 0.45270  0.97400  0.64840  Biso   1.000  C
  C86      1.0000 0.63560  0.07240  0.50150  Biso   1.000  C
  C87      1.0000 0.72860  0.06010  0.55410  Biso   1.000  C
  C88      1.0000 0.45030  0.96350  0.68960  Biso   1.000  C
  C89      1.0000 0.44020  0.01910  0.63080  Biso   1.000  C
  C90      1.0000 0.69100  0.08380  0.51660  Biso   1.000  C
  H14      1.0000 0.46050  0.93220  0.70250  Biso   1.000  H
  C91      1.0000 0.43270  0.99890  0.71270  Biso   1.000  C
  C92      1.0000 0.42490  0.05460  0.65360  Biso   1.000  C
  H15      1.0000 0.44200  0.02630  0.60240  Biso   1.000  H
  C93      1.0000 0.71370  0.11480  0.48910  Biso   1.000  C
  H16      1.0000 0.42910  0.99110  0.74040  Biso   1.000  H
  C94      1.0000 0.42040  0.04570  0.69480  Biso   1.000  C
  H17      1.0000 0.41710  0.08620  0.64080  Biso   1.000  H
  C95      1.0000 0.69100  0.11400  0.44210  Biso   1.000  C
  C96      1.0000 0.75980  0.14300  0.51170  Biso   1.000  C
  C97      1.0000 0.40550  0.08440  0.71890  Biso   1.000  C
  C98      1.0000 0.71440  0.14130  0.41760  Biso   1.000  C
  C99      1.0000 0.78310  0.17040  0.48720  Biso   1.000  C
  C100     1.0000 0.42810  0.08550  0.76670  Biso   1.000  C
  C101     1.0000 0.36880  0.12080  0.69640  Biso   1.000  C
  C102     1.0000 0.76040  0.16960  0.44020  Biso   1.000  C
  C103     1.0000 0.69040  0.14310  0.36810  Biso   1.000  C
  C104     1.0000 0.84070  0.19200  0.51510  Biso   1.000  C
  H18      1.0000 0.45270  0.06060  0.78300  Biso   1.000  H
  C105     1.0000 0.41440  0.12380  0.79100  Biso   1.000  C
  C106     1.0000 0.35370  0.15730  0.71780  Biso   1.000  C
  H19      1.0000 0.35330  0.12020  0.66430  Biso   1.000  H
  C107     1.0000 0.63470  0.14800  0.34230  Biso   1.000  C
  C108     1.0000 0.72690  0.13450  0.34700  Biso   1.000  C
  C109     1.0000 0.88580  0.18690  0.50320  Biso   1.000  C
  C110     1.0000 0.84350  0.22280  0.55030  Biso   1.000  C
  C111     1.0000 0.37840  0.15930  0.76630  Biso   1.000  C
  C112     1.0000 0.43950  0.12410  0.84160  Biso   1.000  C
  C113     1.0000 0.31470  0.19480  0.69160  Biso   1.000  C
  C114     1.0000 0.61530  0.14410  0.29540  Biso   1.000  C
  C115     1.0000 0.70760  0.13070  0.30010  Biso   1.000  C
  C116     1.0000 0.93370  0.21260  0.52640  Biso   1.000  C
  C117     1.0000 0.89140  0.24850  0.57360  Biso   1.000  C
  H20      1.0000 0.36990  0.18550  0.78170  Biso   1.000  H
  C118     1.0000 0.44360  0.08290  0.86650  Biso   1.000  C
  C119     1.0000 0.44640  0.16950  0.86200  Biso   1.000  C
  C120     1.0000 0.27210  0.18370  0.65280  Biso   1.000  C
  C121     1.0000 0.31900  0.24270  0.70620  Biso   1.000  C
  C122     1.0000 0.65180  0.13550  0.27440  Biso   1.000  C
  C123     1.0000 0.93650  0.24340  0.56160  Biso   1.000  C
  H21      1.0000 0.43110  0.05300  0.85130  Biso   1.000  H
  C124     1.0000 0.46510  0.08390  0.91250  Biso   1.000  C
  C125     1.0000 0.45980  0.16750  0.90840  Biso   1.000  C
  H22      1.0000 0.27030  0.15180  0.64110  Biso   1.000  H
  C126     1.0000 0.23140  0.21560  0.62930  Biso   1.000  C
  C127     1.0000 0.28080  0.27660  0.68450  Biso   1.000  C
  H23      1.0000 0.34970  0.25190  0.73240  Biso   1.000  H
  C128     1.0000 0.63670  0.12480  0.22485  Biso   1.000  C
  C129     1.0000 0.98970  0.26750  0.58220  Biso   1.000  C
  H24      1.0000 0.46650  0.05510  0.92920  Biso   1.000  H
  C130     1.0000 0.48540  0.12810  0.93530  Biso   1.000  C
  H25      1.0000 0.20110  0.20570  0.60310  Biso   1.000  H
  C131     1.0000 0.23610  0.26310  0.64540  Biso   1.000  C
  H26      1.0000 0.28430  0.30890  0.69560  Biso   1.000  H
  C132     1.0000 0.50960  0.12940  0.98530  Biso   1.000  C
  C133     1.0000 0.19300  0.30050  0.62160  Biso   1.000  C
  C134     1.0000 0.49030  0.16840  0.91100  Biso   1.000  C
  C135     1.0000 0.46740  0.16520  0.86400  Biso   1.000  C
  C136     1.0000 0.74700  0.07820  0.49060  Biso   1.000  C
  C137     1.0000 0.72280  0.07860  0.44050  Biso   1.000  C
  C138     1.0000 0.75030  0.10360  0.41950  Biso   1.000  C
  C139     1.0000 0.79830  0.12830  0.44220  Biso   1.000  C
  C140     1.0000 0.82040  0.12770  0.49050  Biso   1.000  C
  C141     1.0000 0.79450  0.10090  0.51190  Biso   1.000  C
  C142     1.0000 0.85900  0.16740  0.51150  Biso   1.000  C
  C143     1.0000 0.90100  0.17210  0.49820  Biso   1.000  C
  C144     1.0000 0.94600  0.20160  0.52050  Biso   1.000  C
  C145     1.0000 0.94790  0.22730  0.55770  Biso   1.000  C
  C146     1.0000 0.90570  0.22630  0.57200  Biso   1.000  C
  C147     1.0000 0.86140  0.19280  0.54800  Biso   1.000  C
  C148     1.0000 0.66760  0.11380  0.34310  Biso   1.000  C
  C149     1.0000 0.64580  0.11320  0.29810  Biso   1.000  C
  C150     1.0000 0.67930  0.11050  0.27120  Biso   1.000  C
  C151     1.0000 0.73910  0.11010  0.29460  Biso   1.000  C
  C152     1.0000 0.75800  0.10730  0.34400  Biso   1.000  C
  C153     1.0000 0.72340  0.10700  0.36730  Biso   1.000  C
  C154     1.0000 0.65970  0.05130  0.49660  Biso   1.000  C
  C155     1.0000 0.63080  0.02160  0.51490  Biso   1.000  C
  C156     1.0000 0.74750  0.02350  0.55490  Biso   1.000  C
  C157     1.0000 0.71170  0.00820  0.57460  Biso   1.000  C
  C158     1.0000 0.71670  0.04920  0.51600  Biso   1.000  C
  Zn9      1.0000 0.14904  0.61012  0.13953  Biso   1.000  Zn
  O27      1.0000 0.07600  0.63270  0.10574  Biso   1.000  O
  O28      1.0000 0.16700  0.55040  0.11690  Biso   1.000  O
  O29      1.0000 0.16670  0.39200  0.70616  Biso   1.000  O
  O30      1.0000 0.70120  0.15700  0.13650  Biso   1.000  O
  Zn10     1.0000 0.03304  0.58008  0.06894  Biso   1.000  Zn
  Zn11     1.0000 0.04202  0.65557  0.14688  Biso   1.000  Zn
  Zn12     1.0000 0.07832  0.68441  0.06532  Biso   1.000  Zn
  C159     1.0000 0.13270  0.52420  0.08510  Biso   1.000  C
  O31      1.0000 0.08200  0.52650  0.07180  Biso   1.000  O
  O32      1.0000 0.98150  0.55030  0.09080  Biso   1.000  O
  O33      1.0000 0.99980  0.40630  0.50520  Biso   1.000  O
  O34      1.0000 0.98700  0.60400  0.14390  Biso   1.000  O
  O35      1.0000 0.09900  0.34450  0.70990  Biso   1.000  O
  O36      1.0000 0.49080  0.20790  0.11360  Biso   1.000  O
  O37      1.0000 0.52830  0.23580  0.06670  Biso   1.000  O
  O38      1.0000 0.65070  0.21370  0.09020  Biso   1.000  O
  O39      1.0000 0.04300  0.33670  0.50086  Biso   1.000  O
  C160     1.0000 0.15520  0.48650  0.06120  Biso   1.000  C
  C161     1.0000 0.97650  0.56210  0.12560  Biso   1.000  C
  C162     1.0000 0.11760  0.46280  0.02380  Biso   1.000  C
  C163     1.0000 0.21070  0.47500  0.07640  Biso   1.000  C
  C164     1.0000 0.95270  0.52600  0.14840  Biso   1.000  C
  C165     1.0000 0.13560  0.42760  0.00150  Biso   1.000  C
  C166     1.0000 0.22860  0.43990  0.05410  Biso   1.000  C
  C167     1.0000 0.95030  0.53650  0.18960  Biso   1.000  C
  C168     1.0000 0.94020  0.48090  0.13080  Biso   1.000  C
  C169     1.0000 0.19100  0.41620  0.01660  Biso   1.000  C
  H27      1.0000 0.96050  0.56780  0.20250  Biso   1.000  H
  C170     1.0000 0.93270  0.50110  0.21270  Biso   1.000  C
  C171     1.0000 0.92490  0.44540  0.15360  Biso   1.000  C
  H28      1.0000 0.94200  0.47370  0.10240  Biso   1.000  H
  C172     1.0000 0.21370  0.38520  0.98910  Biso   1.000  C
  H29      1.0000 0.92910  0.50890  0.24040  Biso   1.000  H
  C173     1.0000 0.92040  0.45430  0.19480  Biso   1.000  C
  H30      1.0000 0.91710  0.41380  0.14080  Biso   1.000  H
  C174     1.0000 0.19100  0.38600  0.94210  Biso   1.000  C
  C175     1.0000 0.25980  0.35700  0.01170  Biso   1.000  C
  C176     1.0000 0.90550  0.41560  0.21890  Biso   1.000  C
  C177     1.0000 0.21440  0.35870  0.91760  Biso   1.000  C
  C178     1.0000 0.28310  0.32960  0.98720  Biso   1.000  C
  C179     1.0000 0.92810  0.41450  0.26670  Biso   1.000  C
  C180     1.0000 0.86880  0.37920  0.19640  Biso   1.000  C
  C181     1.0000 0.26040  0.33040  0.94020  Biso   1.000  C
  C182     1.0000 0.19040  0.35690  0.86810  Biso   1.000  C
  C183     1.0000 0.34070  0.30800  0.01510  Biso   1.000  C
  H31      1.0000 0.95270  0.43940  0.28300  Biso   1.000  H
  C184     1.0000 0.91440  0.37620  0.29100  Biso   1.000  C
  C185     1.0000 0.85370  0.34270  0.21780  Biso   1.000  C
  H32      1.0000 0.85330  0.37980  0.16430  Biso   1.000  H
  C186     1.0000 0.13470  0.35200  0.84230  Biso   1.000  C
  C187     1.0000 0.22690  0.36550  0.84700  Biso   1.000  C
  C188     1.0000 0.38580  0.31310  0.00320  Biso   1.000  C
  C189     1.0000 0.34350  0.27720  0.05030  Biso   1.000  C
  C190     1.0000 0.87840  0.34070  0.26630  Biso   1.000  C
  C191     1.0000 0.93950  0.37590  0.34160  Biso   1.000  C
  C192     1.0000 0.81470  0.30520  0.19160  Biso   1.000  C
  C193     1.0000 0.11530  0.35590  0.79540  Biso   1.000  C
  C194     1.0000 0.20760  0.36930  0.80010  Biso   1.000  C
  C195     1.0000 0.43370  0.28740  0.02640  Biso   1.000  C
  C196     1.0000 0.39140  0.25150  0.07360  Biso   1.000  C
  H33      1.0000 0.86990  0.31450  0.28170  Biso   1.000  H
  C197     1.0000 0.94360  0.41710  0.36650  Biso   1.000  C
  C198     1.0000 0.94640  0.33050  0.36200  Biso   1.000  C
  C199     1.0000 0.77210  0.31630  0.15280  Biso   1.000  C
  C200     1.0000 0.81900  0.25730  0.20620  Biso   1.000  C
  C201     1.0000 0.15180  0.36450  0.77440  Biso   1.000  C
  C202     1.0000 0.43650  0.25660  0.06160  Biso   1.000  C
  H34      1.0000 0.93110  0.44700  0.35130  Biso   1.000  H
  C203     1.0000 0.96510  0.41610  0.41250  Biso   1.000  C
  C204     1.0000 0.95980  0.33250  0.40840  Biso   1.000  C
  H35      1.0000 0.77030  0.34820  0.14110  Biso   1.000  H
  C205     1.0000 0.73140  0.28440  0.12930  Biso   1.000  C
  C206     1.0000 0.78080  0.22340  0.18450  Biso   1.000  C
  H36      1.0000 0.84970  0.24810  0.23240  Biso   1.000  H
  C207     1.0000 0.13670  0.37520  0.72485  Biso   1.000  C
  C208     1.0000 0.48970  0.23250  0.08220  Biso   1.000  C
  H37      1.0000 0.96650  0.44490  0.42920  Biso   1.000  H
  C209     1.0000 0.98540  0.37190  0.43530  Biso   1.000  C
  H38      1.0000 0.70110  0.29430  0.10310  Biso   1.000  H
  C210     1.0000 0.73610  0.23690  0.14540  Biso   1.000  C
  H39      1.0000 0.78430  0.19110  0.19560  Biso   1.000  H
  C211     1.0000 0.00960  0.37060  0.48530  Biso   1.000  C
  C212     1.0000 0.69300  0.19950  0.12160  Biso   1.000  C
  C213     1.0000 0.99030  0.33160  0.41100  Biso   1.000  C
  C214     1.0000 0.96740  0.33480  0.36400  Biso   1.000  C
  C215     1.0000 0.24700  0.42180  0.99060  Biso   1.000  C
  C216     1.0000 0.22280  0.42140  0.94050  Biso   1.000  C
  C217     1.0000 0.25030  0.39640  0.91950  Biso   1.000  C
  C218     1.0000 0.29830  0.37170  0.94220  Biso   1.000  C
  C219     1.0000 0.32040  0.37230  0.99050  Biso   1.000  C
  C220     1.0000 0.29450  0.39910  0.01190  Biso   1.000  C
  C221     1.0000 0.35900  0.33260  0.01150  Biso   1.000  C
  C222     1.0000 0.40100  0.32790  0.99820  Biso   1.000  C
  C223     1.0000 0.44600  0.29840  0.02050  Biso   1.000  C
  C224     1.0000 0.44790  0.27270  0.05770  Biso   1.000  C
  C225     1.0000 0.40570  0.27370  0.07200  Biso   1.000  C
  C226     1.0000 0.36140  0.30720  0.04800  Biso   1.000  C
  C227     1.0000 0.16760  0.38620  0.84310  Biso   1.000  C
  C228     1.0000 0.14580  0.38680  0.79810  Biso   1.000  C
  C229     1.0000 0.17930  0.38950  0.77120  Biso   1.000  C
  C230     1.0000 0.23910  0.38990  0.79460  Biso   1.000  C
  C231     1.0000 0.25800  0.39270  0.84400  Biso   1.000  C
  C232     1.0000 0.22340  0.39300  0.86730  Biso   1.000  C
  C233     1.0000 0.15970  0.44870  0.99660  Biso   1.000  C
  C234     1.0000 0.13080  0.47840  0.01490  Biso   1.000  C
  C235     1.0000 0.24750  0.47650  0.05490  Biso   1.000  C
  C236     1.0000 0.21170  0.49180  0.07460  Biso   1.000  C
  C237     1.0000 0.21670  0.45080  0.01600  Biso   1.000  C
  Zn13     1.0000 0.64904  0.11012  0.13953  Biso   1.000  Zn
  O40      1.0000 0.57600  0.13270  0.10574  Biso   1.000  O
  O41      1.0000 0.66700  0.05040  0.11690  Biso   1.000  O
  O42      1.0000 0.66670  0.89200  0.70616  Biso   1.000  O
  O43      1.0000 0.20120  0.65700  0.13650  Biso   1.000  O
  Zn14     1.0000 0.53304  0.08008  0.06894  Biso   1.000  Zn
  Zn15     1.0000 0.54202  0.15557  0.14688  Biso   1.000  Zn
  Zn16     1.0000 0.57832  0.18441  0.06532  Biso   1.000  Zn
  C238     1.0000 0.63270  0.02420  0.08510  Biso   1.000  C
  O44      1.0000 0.58200  0.02650  0.07180  Biso   1.000  O
  O45      1.0000 0.48150  0.05030  0.09080  Biso   1.000  O
  O46      1.0000 0.49980  0.90630  0.50520  Biso   1.000  O
  O47      1.0000 0.48700  0.10400  0.14390  Biso   1.000  O
  O48      1.0000 0.59900  0.84450  0.70990  Biso   1.000  O
  O49      1.0000 0.99080  0.70790  0.11360  Biso   1.000  O
  O50      1.0000 0.02830  0.73580  0.06670  Biso   1.000  O
  O51      1.0000 0.15070  0.71370  0.09020  Biso   1.000  O
  O52      1.0000 0.54300  0.83670  0.50086  Biso   1.000  O
  C239     1.0000 0.65520  0.98650  0.06120  Biso   1.000  C
  C240     1.0000 0.47650  0.06210  0.12560  Biso   1.000  C
  C241     1.0000 0.61760  0.96280  0.02380  Biso   1.000  C
  C242     1.0000 0.71070  0.97500  0.07640  Biso   1.000  C
  C243     1.0000 0.45270  0.02600  0.14840  Biso   1.000  C
  C244     1.0000 0.63560  0.92760  0.00150  Biso   1.000  C
  C245     1.0000 0.72860  0.93990  0.05410  Biso   1.000  C
  C246     1.0000 0.45030  0.03650  0.18960  Biso   1.000  C
  C247     1.0000 0.44020  0.98090  0.13080  Biso   1.000  C
  C248     1.0000 0.69100  0.91620  0.01660  Biso   1.000  C
  H40      1.0000 0.46050  0.06780  0.20250  Biso   1.000  H
  C249     1.0000 0.43270  0.00110  0.21270  Biso   1.000  C
  C250     1.0000 0.42490  0.94540  0.15360  Biso   1.000  C
  H41      1.0000 0.44200  0.97370  0.10240  Biso   1.000  H
  C251     1.0000 0.71370  0.88520  0.98910  Biso   1.000  C
  H42      1.0000 0.42910  0.00890  0.24040  Biso   1.000  H
  C252     1.0000 0.42040  0.95430  0.19480  Biso   1.000  C
  H43      1.0000 0.41710  0.91380  0.14080  Biso   1.000  H
  C253     1.0000 0.69100  0.88600  0.94210  Biso   1.000  C
  C254     1.0000 0.75980  0.85700  0.01170  Biso   1.000  C
  C255     1.0000 0.40550  0.91560  0.21890  Biso   1.000  C
  C256     1.0000 0.71440  0.85870  0.91760  Biso   1.000  C
  C257     1.0000 0.78310  0.82960  0.98720  Biso   1.000  C
  C258     1.0000 0.42810  0.91450  0.26670  Biso   1.000  C
  C259     1.0000 0.36880  0.87920  0.19640  Biso   1.000  C
  C260     1.0000 0.76040  0.83040  0.94020  Biso   1.000  C
  C261     1.0000 0.69040  0.85690  0.86810  Biso   1.000  C
  C262     1.0000 0.84070  0.80800  0.01510  Biso   1.000  C
  H44      1.0000 0.45270  0.93940  0.28300  Biso   1.000  H
  C263     1.0000 0.41440  0.87620  0.29100  Biso   1.000  C
  C264     1.0000 0.35370  0.84270  0.21780  Biso   1.000  C
  H45      1.0000 0.35330  0.87980  0.16430  Biso   1.000  H
  C265     1.0000 0.63470  0.85200  0.84230  Biso   1.000  C
  C266     1.0000 0.72690  0.86550  0.84700  Biso   1.000  C
  C267     1.0000 0.88580  0.81310  0.00320  Biso   1.000  C
  C268     1.0000 0.84350  0.77720  0.05030  Biso   1.000  C
  C269     1.0000 0.37840  0.84070  0.26630  Biso   1.000  C
  C270     1.0000 0.43950  0.87590  0.34160  Biso   1.000  C
  C271     1.0000 0.31470  0.80520  0.19160  Biso   1.000  C
  C272     1.0000 0.61530  0.85590  0.79540  Biso   1.000  C
  C273     1.0000 0.70760  0.86930  0.80010  Biso   1.000  C
  C274     1.0000 0.93370  0.78740  0.02640  Biso   1.000  C
  C275     1.0000 0.89140  0.75150  0.07360  Biso   1.000  C
  H46      1.0000 0.36990  0.81450  0.28170  Biso   1.000  H
  C276     1.0000 0.44360  0.91710  0.36650  Biso   1.000  C
  C277     1.0000 0.44640  0.83050  0.36200  Biso   1.000  C
  C278     1.0000 0.27210  0.81630  0.15280  Biso   1.000  C
  C279     1.0000 0.31900  0.75730  0.20620  Biso   1.000  C
  C280     1.0000 0.65180  0.86450  0.77440  Biso   1.000  C
  C281     1.0000 0.93650  0.75660  0.06160  Biso   1.000  C
  H47      1.0000 0.43110  0.94700  0.35130  Biso   1.000  H
  C282     1.0000 0.46510  0.91610  0.41250  Biso   1.000  C
  C283     1.0000 0.45980  0.83250  0.40840  Biso   1.000  C
  H48      1.0000 0.27030  0.84820  0.14110  Biso   1.000  H
  C284     1.0000 0.23140  0.78440  0.12930  Biso   1.000  C
  C285     1.0000 0.28080  0.72340  0.18450  Biso   1.000  C
  H49      1.0000 0.34970  0.74810  0.23240  Biso   1.000  H
  C286     1.0000 0.63670  0.87520  0.72485  Biso   1.000  C
  C287     1.0000 0.98970  0.73250  0.08220  Biso   1.000  C
  H50      1.0000 0.46650  0.94490  0.42920  Biso   1.000  H
  C288     1.0000 0.48540  0.87190  0.43530  Biso   1.000  C
  H51      1.0000 0.20110  0.79430  0.10310  Biso   1.000  H
  C289     1.0000 0.23610  0.73690  0.14540  Biso   1.000  C
  H52      1.0000 0.28430  0.69110  0.19560  Biso   1.000  H
  C290     1.0000 0.50960  0.87060  0.48530  Biso   1.000  C
  C291     1.0000 0.19300  0.69950  0.12160  Biso   1.000  C
  C292     1.0000 0.49030  0.83160  0.41100  Biso   1.000  C
  C293     1.0000 0.46740  0.83480  0.36400  Biso   1.000  C
  C294     1.0000 0.74700  0.92180  0.99060  Biso   1.000  C
  C295     1.0000 0.72280  0.92140  0.94050  Biso   1.000  C
  C296     1.0000 0.75030  0.89640  0.91950  Biso   1.000  C
  C297     1.0000 0.79830  0.87170  0.94220  Biso   1.000  C
  C298     1.0000 0.82040  0.87230  0.99050  Biso   1.000  C
  C299     1.0000 0.79450  0.89910  0.01190  Biso   1.000  C
  C300     1.0000 0.85900  0.83260  0.01150  Biso   1.000  C
  C301     1.0000 0.90100  0.82790  0.99820  Biso   1.000  C
  C302     1.0000 0.94600  0.79840  0.02050  Biso   1.000  C
  C303     1.0000 0.94790  0.77270  0.05770  Biso   1.000  C
  C304     1.0000 0.90570  0.77370  0.07200  Biso   1.000  C
  C305     1.0000 0.86140  0.80720  0.04800  Biso   1.000  C
  C306     1.0000 0.66760  0.88620  0.84310  Biso   1.000  C
  C307     1.0000 0.64580  0.88680  0.79810  Biso   1.000  C
  C308     1.0000 0.67930  0.88950  0.77120  Biso   1.000  C
  C309     1.0000 0.73910  0.88990  0.79460  Biso   1.000  C
  C310     1.0000 0.75800  0.89270  0.84400  Biso   1.000  C
  C311     1.0000 0.72340  0.89300  0.86730  Biso   1.000  C
  C312     1.0000 0.65970  0.94870  0.99660  Biso   1.000  C
  C313     1.0000 0.63080  0.97840  0.01490  Biso   1.000  C
  C314     1.0000 0.74750  0.97650  0.05490  Biso   1.000  C
  C315     1.0000 0.71170  0.99180  0.07460  Biso   1.000  C
  C316     1.0000 0.71670  0.95080  0.01600  Biso   1.000  C
  Zn17     1.0000 0.85096  0.38988  0.86047  Biso   1.000  Zn
  O53      1.0000 0.92400  0.36730  0.89426  Biso   1.000  O
  O54      1.0000 0.83300  0.44960  0.88310  Biso   1.000  O
  O55      1.0000 0.83330  0.60800  0.29384  Biso   1.000  O
  O56      1.0000 0.29880  0.84300  0.86350  Biso   1.000  O
  Zn18     1.0000 0.96696  0.41992  0.93106  Biso   1.000  Zn
  Zn19     1.0000 0.95798  0.34443  0.85312  Biso   1.000  Zn
  Zn20     1.0000 0.92168  0.31559  0.93468  Biso   1.000  Zn
  C317     1.0000 0.86730  0.47580  0.91490  Biso   1.000  C
  O57      1.0000 0.91800  0.47350  0.92820  Biso   1.000  O
  O58      1.0000 0.01850  0.44970  0.90920  Biso   1.000  O
  O59      1.0000 0.00020  0.59370  0.49480  Biso   1.000  O
  O60      1.0000 0.01300  0.39600  0.85610  Biso   1.000  O
  O61      1.0000 0.90100  0.65550  0.29010  Biso   1.000  O
  O62      1.0000 0.50920  0.79210  0.88640  Biso   1.000  O
  O63      1.0000 0.47170  0.76420  0.93330  Biso   1.000  O
  O64      1.0000 0.34930  0.78630  0.90980  Biso   1.000  O
  O65      1.0000 0.95700  0.66330  0.49914  Biso   1.000  O
  C318     1.0000 0.84480  0.51350  0.93880  Biso   1.000  C
  C319     1.0000 0.02350  0.43790  0.87440  Biso   1.000  C
  C320     1.0000 0.88240  0.53720  0.97620  Biso   1.000  C
  C321     1.0000 0.78930  0.52500  0.92360  Biso   1.000  C
  C322     1.0000 0.04730  0.47400  0.85160  Biso   1.000  C
  C323     1.0000 0.86440  0.57240  0.99850  Biso   1.000  C
  C324     1.0000 0.77140  0.56010  0.94590  Biso   1.000  C
  C325     1.0000 0.04970  0.46350  0.81040  Biso   1.000  C
  C326     1.0000 0.05980  0.51910  0.86920  Biso   1.000  C
  C327     1.0000 0.80900  0.58380  0.98340  Biso   1.000  C
  H53      1.0000 0.03950  0.43220  0.79750  Biso   1.000  H
  C328     1.0000 0.06730  0.49890  0.78730  Biso   1.000  C
  C329     1.0000 0.07510  0.55460  0.84640  Biso   1.000  C
  H54      1.0000 0.05800  0.52630  0.89760  Biso   1.000  H
  C330     1.0000 0.78630  0.61480  0.01090  Biso   1.000  C
  H55      1.0000 0.07090  0.49110  0.75960  Biso   1.000  H
  C331     1.0000 0.07960  0.54570  0.80520  Biso   1.000  C
  H56      1.0000 0.08290  0.58620  0.85920  Biso   1.000  H
  C332     1.0000 0.80900  0.61400  0.05790  Biso   1.000  C
  C333     1.0000 0.74020  0.64300  0.98830  Biso   1.000  C
  C334     1.0000 0.09450  0.58440  0.78110  Biso   1.000  C
  C335     1.0000 0.78560  0.64130  0.08240  Biso   1.000  C
  C336     1.0000 0.71690  0.67040  0.01280  Biso   1.000  C
  C337     1.0000 0.07190  0.58550  0.73330  Biso   1.000  C
  C338     1.0000 0.13120  0.62080  0.80360  Biso   1.000  C
  C339     1.0000 0.73960  0.66960  0.05980  Biso   1.000  C
  C340     1.0000 0.80960  0.64310  0.13190  Biso   1.000  C
  C341     1.0000 0.65930  0.69200  0.98490  Biso   1.000  C
  H57      1.0000 0.04730  0.56060  0.71700  Biso   1.000  H
  C342     1.0000 0.08560  0.62380  0.70900  Biso   1.000  C
  C343     1.0000 0.14630  0.65730  0.78220  Biso   1.000  C
  H58      1.0000 0.14670  0.62020  0.83570  Biso   1.000  H
  C344     1.0000 0.86530  0.64800  0.15770  Biso   1.000  C
  C345     1.0000 0.77310  0.63450  0.15300  Biso   1.000  C
  C346     1.0000 0.61420  0.68690  0.99680  Biso   1.000  C
  C347     1.0000 0.65650  0.72280  0.94970  Biso   1.000  C
  C348     1.0000 0.12160  0.65930  0.73370  Biso   1.000  C
  C349     1.0000 0.06050  0.62410  0.65840  Biso   1.000  C
  C350     1.0000 0.18530  0.69480  0.80840  Biso   1.000  C
  C351     1.0000 0.88470  0.64410  0.20460  Biso   1.000  C
  C352     1.0000 0.79240  0.63070  0.19990  Biso   1.000  C
  C353     1.0000 0.56630  0.71260  0.97360  Biso   1.000  C
  C354     1.0000 0.60860  0.74850  0.92640  Biso   1.000  C
  H59      1.0000 0.13010  0.68550  0.71830  Biso   1.000  H
  C355     1.0000 0.05640  0.58290  0.63350  Biso   1.000  C
  C356     1.0000 0.05360  0.66950  0.63800  Biso   1.000  C
  C357     1.0000 0.22790  0.68370  0.84720  Biso   1.000  C
  C358     1.0000 0.18100  0.74270  0.79380  Biso   1.000  C
  C359     1.0000 0.84820  0.63550  0.22560  Biso   1.000  C
  C360     1.0000 0.56350  0.74340  0.93840  Biso   1.000  C
  H60      1.0000 0.06890  0.55300  0.64870  Biso   1.000  H
  C361     1.0000 0.03490  0.58390  0.58750  Biso   1.000  C
  C362     1.0000 0.04020  0.66750  0.59160  Biso   1.000  C
  H61      1.0000 0.22970  0.65180  0.85890  Biso   1.000  H
  C363     1.0000 0.26860  0.71560  0.87070  Biso   1.000  C
  C364     1.0000 0.21920  0.77660  0.81550  Biso   1.000  C
  H62      1.0000 0.15030  0.75190  0.76760  Biso   1.000  H
  C365     1.0000 0.86330  0.62480  0.27515  Biso   1.000  C
  C366     1.0000 0.51030  0.76750  0.91780  Biso   1.000  C
  H63      1.0000 0.03350  0.55510  0.57080  Biso   1.000  H
  C367     1.0000 0.01460  0.62810  0.56470  Biso   1.000  C
  H64      1.0000 0.29890  0.70570  0.89690  Biso   1.000  H
  C368     1.0000 0.26390  0.76310  0.85460  Biso   1.000  C
  H65      1.0000 0.21570  0.80890  0.80440  Biso   1.000  H
  C369     1.0000 0.99040  0.62940  0.51470  Biso   1.000  C
  C370     1.0000 0.30700  0.80050  0.87840  Biso   1.000  C
  C371     1.0000 0.00970  0.66840  0.58900  Biso   1.000  C
  C372     1.0000 0.03260  0.66520  0.63600  Biso   1.000  C
  C373     1.0000 0.75300  0.57820  0.00940  Biso   1.000  C
  C374     1.0000 0.77720  0.57860  0.05950  Biso   1.000  C
  C375     1.0000 0.74970  0.60360  0.08050  Biso   1.000  C
  C376     1.0000 0.70170  0.62830  0.05780  Biso   1.000  C
  C377     1.0000 0.67960  0.62770  0.00950  Biso   1.000  C
  C378     1.0000 0.70550  0.60090  0.98810  Biso   1.000  C
  C379     1.0000 0.64100  0.66740  0.98850  Biso   1.000  C
  C380     1.0000 0.59900  0.67210  0.00180  Biso   1.000  C
  C381     1.0000 0.55400  0.70160  0.97950  Biso   1.000  C
  C382     1.0000 0.55210  0.72730  0.94230  Biso   1.000  C
  C383     1.0000 0.59430  0.72630  0.92800  Biso   1.000  C
  C384     1.0000 0.63860  0.69280  0.95200  Biso   1.000  C
  C385     1.0000 0.83240  0.61380  0.15690  Biso   1.000  C
  C386     1.0000 0.85420  0.61320  0.20190  Biso   1.000  C
  C387     1.0000 0.82070  0.61050  0.22880  Biso   1.000  C
  C388     1.0000 0.76090  0.61010  0.20540  Biso   1.000  C
  C389     1.0000 0.74200  0.60730  0.15600  Biso   1.000  C
  C390     1.0000 0.77660  0.60700  0.13270  Biso   1.000  C
  C391     1.0000 0.84030  0.55130  0.00340  Biso   1.000  C
  C392     1.0000 0.86920  0.52160  0.98510  Biso   1.000  C
  C393     1.0000 0.75250  0.52350  0.94510  Biso   1.000  C
  C394     1.0000 0.78830  0.50820  0.92540  Biso   1.000  C
  C395     1.0000 0.78330  0.54920  0.98400  Biso   1.000  C
  Zn21     1.0000 0.35096  0.88988  0.86047  Biso   1.000  Zn
  O66      1.0000 0.42400  0.86730  0.89426  Biso   1.000  O
  O67      1.0000 0.33300  0.94960  0.88310  Biso   1.000  O
  O68      1.0000 0.33330  0.10800  0.29384  Biso   1.000  O
  O69      1.0000 0.79880  0.34300  0.86350  Biso   1.000  O
  Zn22     1.0000 0.46696  0.91992  0.93106  Biso   1.000  Zn
  Zn23     1.0000 0.45798  0.84443  0.85312  Biso   1.000  Zn
  Zn24     1.0000 0.42168  0.81559  0.93468  Biso   1.000  Zn
  C396     1.0000 0.36730  0.97580  0.91490  Biso   1.000  C
  O70      1.0000 0.41800  0.97350  0.92820  Biso   1.000  O
  O71      1.0000 0.51850  0.94970  0.90920  Biso   1.000  O
  O72      1.0000 0.50020  0.09370  0.49480  Biso   1.000  O
  O73      1.0000 0.51300  0.89600  0.85610  Biso   1.000  O
  O74      1.0000 0.40100  0.15550  0.29010  Biso   1.000  O
  O75      1.0000 0.00920  0.29210  0.88640  Biso   1.000  O
  O76      1.0000 0.97170  0.26420  0.93330  Biso   1.000  O
  O77      1.0000 0.84930  0.28630  0.90980  Biso   1.000  O
  O78      1.0000 0.45700  0.16330  0.49914  Biso   1.000  O
  C397     1.0000 0.34480  0.01350  0.93880  Biso   1.000  C
  C398     1.0000 0.52350  0.93790  0.87440  Biso   1.000  C
  C399     1.0000 0.38240  0.03720  0.97620  Biso   1.000  C
  C400     1.0000 0.28930  0.02500  0.92360  Biso   1.000  C
  C401     1.0000 0.54730  0.97400  0.85160  Biso   1.000  C
  C402     1.0000 0.36440  0.07240  0.99850  Biso   1.000  C
  C403     1.0000 0.27140  0.06010  0.94590  Biso   1.000  C
  C404     1.0000 0.54970  0.96350  0.81040  Biso   1.000  C
  C405     1.0000 0.55980  0.01910  0.86920  Biso   1.000  C
  C406     1.0000 0.30900  0.08380  0.98340  Biso   1.000  C
  H66      1.0000 0.53950  0.93220  0.79750  Biso   1.000  H
  C407     1.0000 0.56730  0.99890  0.78730  Biso   1.000  C
  C408     1.0000 0.57510  0.05460  0.84640  Biso   1.000  C
  H67      1.0000 0.55800  0.02630  0.89760  Biso   1.000  H
  C409     1.0000 0.28630  0.11480  0.01090  Biso   1.000  C
  H68      1.0000 0.57090  0.99110  0.75960  Biso   1.000  H
  C410     1.0000 0.57960  0.04570  0.80520  Biso   1.000  C
  H69      1.0000 0.58290  0.08620  0.85920  Biso   1.000  H
  C411     1.0000 0.30900  0.11400  0.05790  Biso   1.000  C
  C412     1.0000 0.24020  0.14300  0.98830  Biso   1.000  C
  C413     1.0000 0.59450  0.08440  0.78110  Biso   1.000  C
  C414     1.0000 0.28560  0.14130  0.08240  Biso   1.000  C
  C415     1.0000 0.21690  0.17040  0.01280  Biso   1.000  C
  C416     1.0000 0.57190  0.08550  0.73330  Biso   1.000  C
  C417     1.0000 0.63120  0.12080  0.80360  Biso   1.000  C
  C418     1.0000 0.23960  0.16960  0.05980  Biso   1.000  C
  C419     1.0000 0.30960  0.14310  0.13190  Biso   1.000  C
  C420     1.0000 0.15930  0.19200  0.98490  Biso   1.000  C
  H70      1.0000 0.54730  0.06060  0.71700  Biso   1.000  H
  C421     1.0000 0.58560  0.12380  0.70900  Biso   1.000  C
  C422     1.0000 0.64630  0.15730  0.78220  Biso   1.000  C
  H71      1.0000 0.64670  0.12020  0.83570  Biso   1.000  H
  C423     1.0000 0.36530  0.14800  0.15770  Biso   1.000  C
  C424     1.0000 0.27310  0.13450  0.15300  Biso   1.000  C
  C425     1.0000 0.11420  0.18690  0.99680  Biso   1.000  C
  C426     1.0000 0.15650  0.22280  0.94970  Biso   1.000  C
  C427     1.0000 0.62160  0.15930  0.73370  Biso   1.000  C
  C428     1.0000 0.56050  0.12410  0.65840  Biso   1.000  C
  C429     1.0000 0.68530  0.19480  0.80840  Biso   1.000  C
  C430     1.0000 0.38470  0.14410  0.20460  Biso   1.000  C
  C431     1.0000 0.29240  0.13070  0.19990  Biso   1.000  C
  C432     1.0000 0.06630  0.21260  0.97360  Biso   1.000  C
  C433     1.0000 0.10860  0.24850  0.92640  Biso   1.000  C
  H72      1.0000 0.63010  0.18550  0.71830  Biso   1.000  H
  C434     1.0000 0.55640  0.08290  0.63350  Biso   1.000  C
  C435     1.0000 0.55360  0.16950  0.63800  Biso   1.000  C
  C436     1.0000 0.72790  0.18370  0.84720  Biso   1.000  C
  C437     1.0000 0.68100  0.24270  0.79380  Biso   1.000  C
  C438     1.0000 0.34820  0.13550  0.22560  Biso   1.000  C
  C439     1.0000 0.06350  0.24340  0.93840  Biso   1.000  C
  H73      1.0000 0.56890  0.05300  0.64870  Biso   1.000  H
  C440     1.0000 0.53490  0.08390  0.58750  Biso   1.000  C
  C441     1.0000 0.54020  0.16750  0.59160  Biso   1.000  C
  H74      1.0000 0.72970  0.15180  0.85890  Biso   1.000  H
  C442     1.0000 0.76860  0.21560  0.87070  Biso   1.000  C
  C443     1.0000 0.71920  0.27660  0.81550  Biso   1.000  C
  H75      1.0000 0.65030  0.25190  0.76760  Biso   1.000  H
  C444     1.0000 0.36330  0.12480  0.27515  Biso   1.000  C
  C445     1.0000 0.01030  0.26750  0.91780  Biso   1.000  C
  H76      1.0000 0.53350  0.05510  0.57080  Biso   1.000  H
  C446     1.0000 0.51460  0.12810  0.56470  Biso   1.000  C
  H77      1.0000 0.79890  0.20570  0.89690  Biso   1.000  H
  C447     1.0000 0.76390  0.26310  0.85460  Biso   1.000  C
  H78      1.0000 0.71570  0.30890  0.80440  Biso   1.000  H
  C448     1.0000 0.49040  0.12940  0.51470  Biso   1.000  C
  C449     1.0000 0.80700  0.30050  0.87840  Biso   1.000  C
  C450     1.0000 0.50970  0.16840  0.58900  Biso   1.000  C
  C451     1.0000 0.53260  0.16520  0.63600  Biso   1.000  C
  C452     1.0000 0.25300  0.07820  0.00940  Biso   1.000  C
  C453     1.0000 0.27720  0.07860  0.05950  Biso   1.000  C
  C454     1.0000 0.24970  0.10360  0.08050  Biso   1.000  C
  C455     1.0000 0.20170  0.12830  0.05780  Biso   1.000  C
  C456     1.0000 0.17960  0.12770  0.00950  Biso   1.000  C
  C457     1.0000 0.20550  0.10090  0.98810  Biso   1.000  C
  C458     1.0000 0.14100  0.16740  0.98850  Biso   1.000  C
  C459     1.0000 0.09900  0.17210  0.00180  Biso   1.000  C
  C460     1.0000 0.05400  0.20160  0.97950  Biso   1.000  C
  C461     1.0000 0.05210  0.22730  0.94230  Biso   1.000  C
  C462     1.0000 0.09430  0.22630  0.92800  Biso   1.000  C
  C463     1.0000 0.13860  0.19280  0.95200  Biso   1.000  C
  C464     1.0000 0.33240  0.11380  0.15690  Biso   1.000  C
  C465     1.0000 0.35420  0.11320  0.20190  Biso   1.000  C
  C466     1.0000 0.32070  0.11050  0.22880  Biso   1.000  C
  C467     1.0000 0.26090  0.11010  0.20540  Biso   1.000  C
  C468     1.0000 0.24200  0.10730  0.15600  Biso   1.000  C
  C469     1.0000 0.27660  0.10700  0.13270  Biso   1.000  C
  C470     1.0000 0.34030  0.05130  0.00340  Biso   1.000  C
  C471     1.0000 0.36920  0.02160  0.98510  Biso   1.000  C
  C472     1.0000 0.25250  0.02350  0.94510  Biso   1.000  C
  C473     1.0000 0.28830  0.00820  0.92540  Biso   1.000  C
  C474     1.0000 0.28330  0.04920  0.98400  Biso   1.000  C
  Zn25     1.0000 0.85096  0.61012  0.36047  Biso   1.000  Zn
  O79      1.0000 0.92400  0.63270  0.39426  Biso   1.000  O
  O80      1.0000 0.83300  0.55040  0.38310  Biso   1.000  O
  O81      1.0000 0.83330  0.39200  0.79384  Biso   1.000  O
  O82      1.0000 0.29880  0.15700  0.36350  Biso   1.000  O
  Zn26     1.0000 0.96696  0.58008  0.43106  Biso   1.000  Zn
  Zn27     1.0000 0.95798  0.65557  0.35312  Biso   1.000  Zn
  Zn28     1.0000 0.92168  0.68441  0.43468  Biso   1.000  Zn
  C475     1.0000 0.86730  0.52420  0.41490  Biso   1.000  C
  O83      1.0000 0.91800  0.52650  0.42820  Biso   1.000  O
  O84      1.0000 0.01850  0.55030  0.40920  Biso   1.000  O
  O85      1.0000 0.00020  0.40630  0.99480  Biso   1.000  O
  O86      1.0000 0.01300  0.60400  0.35610  Biso   1.000  O
  O87      1.0000 0.90100  0.34450  0.79010  Biso   1.000  O
  O88      1.0000 0.50920  0.20790  0.38640  Biso   1.000  O
  O89      1.0000 0.47170  0.23580  0.43330  Biso   1.000  O
  O90      1.0000 0.34930  0.21370  0.40980  Biso   1.000  O
  O91      1.0000 0.95700  0.33670  0.99914  Biso   1.000  O
  C476     1.0000 0.84480  0.48650  0.43880  Biso   1.000  C
  C477     1.0000 0.02350  0.56210  0.37440  Biso   1.000  C
  C478     1.0000 0.88240  0.46280  0.47620  Biso   1.000  C
  C479     1.0000 0.78930  0.47500  0.42360  Biso   1.000  C
  C480     1.0000 0.04730  0.52600  0.35160  Biso   1.000  C
  C481     1.0000 0.86440  0.42760  0.49850  Biso   1.000  C
  C482     1.0000 0.77140  0.43990  0.44590  Biso   1.000  C
  C483     1.0000 0.04970  0.53650  0.31040  Biso   1.000  C
  C484     1.0000 0.05980  0.48090  0.36920  Biso   1.000  C
  C485     1.0000 0.80900  0.41620  0.48340  Biso   1.000  C
  H79      1.0000 0.03950  0.56780  0.29750  Biso   1.000  H
  C486     1.0000 0.06730  0.50110  0.28730  Biso   1.000  C
  C487     1.0000 0.07510  0.44540  0.34640  Biso   1.000  C
  H80      1.0000 0.05800  0.47370  0.39760  Biso   1.000  H
  C488     1.0000 0.78630  0.38520  0.51090  Biso   1.000  C
  H81      1.0000 0.07090  0.50890  0.25960  Biso   1.000  H
  C489     1.0000 0.07960  0.45430  0.30520  Biso   1.000  C
  H82      1.0000 0.08290  0.41380  0.35920  Biso   1.000  H
  C490     1.0000 0.80900  0.38600  0.55790  Biso   1.000  C
  C491     1.0000 0.74020  0.35700  0.48830  Biso   1.000  C
  C492     1.0000 0.09450  0.41560  0.28110  Biso   1.000  C
  C493     1.0000 0.78560  0.35870  0.58240  Biso   1.000  C
  C494     1.0000 0.71690  0.32960  0.51280  Biso   1.000  C
  C495     1.0000 0.07190  0.41450  0.23330  Biso   1.000  C
  C496     1.0000 0.13120  0.37920  0.30360  Biso   1.000  C
  C497     1.0000 0.73960  0.33040  0.55980  Biso   1.000  C
  C498     1.0000 0.80960  0.35690  0.63190  Biso   1.000  C
  C499     1.0000 0.65930  0.30800  0.48490  Biso   1.000  C
  H83      1.0000 0.04730  0.43940  0.21700  Biso   1.000  H
  C500     1.0000 0.08560  0.37620  0.20900  Biso   1.000  C
  C501     1.0000 0.14630  0.34270  0.28220  Biso   1.000  C
  H84      1.0000 0.14670  0.37980  0.33570  Biso   1.000  H
  C502     1.0000 0.86530  0.35200  0.65770  Biso   1.000  C
  C503     1.0000 0.77310  0.36550  0.65300  Biso   1.000  C
  C504     1.0000 0.61420  0.31310  0.49680  Biso   1.000  C
  C505     1.0000 0.65650  0.27720  0.44970  Biso   1.000  C
  C506     1.0000 0.12160  0.34070  0.23370  Biso   1.000  C
  C507     1.0000 0.06050  0.37590  0.15840  Biso   1.000  C
  C508     1.0000 0.18530  0.30520  0.30840  Biso   1.000  C
  C509     1.0000 0.88470  0.35590  0.70460  Biso   1.000  C
  C510     1.0000 0.79240  0.36930  0.69990  Biso   1.000  C
  C511     1.0000 0.56630  0.28740  0.47360  Biso   1.000  C
  C512     1.0000 0.60860  0.25150  0.42640  Biso   1.000  C
  H85      1.0000 0.13010  0.31450  0.21830  Biso   1.000  H
  C513     1.0000 0.05640  0.41710  0.13350  Biso   1.000  C
  C514     1.0000 0.05360  0.33050  0.13800  Biso   1.000  C
  C515     1.0000 0.22790  0.31630  0.34720  Biso   1.000  C
  C516     1.0000 0.18100  0.25730  0.29380  Biso   1.000  C
  C517     1.0000 0.84820  0.36450  0.72560  Biso   1.000  C
  C518     1.0000 0.56350  0.25660  0.43840  Biso   1.000  C
  H86      1.0000 0.06890  0.44700  0.14870  Biso   1.000  H
  C519     1.0000 0.03490  0.41610  0.08750  Biso   1.000  C
  C520     1.0000 0.04020  0.33250  0.09160  Biso   1.000  C
  H87      1.0000 0.22970  0.34820  0.35890  Biso   1.000  H
  C521     1.0000 0.26860  0.28440  0.37070  Biso   1.000  C
  C522     1.0000 0.21920  0.22340  0.31550  Biso   1.000  C
  H88      1.0000 0.15030  0.24810  0.26760  Biso   1.000  H
  C523     1.0000 0.86330  0.37520  0.77515  Biso   1.000  C
  C524     1.0000 0.51030  0.23250  0.41780  Biso   1.000  C
  H89      1.0000 0.03350  0.44490  0.07080  Biso   1.000  H
  C525     1.0000 0.01460  0.37190  0.06470  Biso   1.000  C
  H90      1.0000 0.29890  0.29430  0.39690  Biso   1.000  H
  C526     1.0000 0.26390  0.23690  0.35460  Biso   1.000  C
  H91      1.0000 0.21570  0.19110  0.30440  Biso   1.000  H
  C527     1.0000 0.99040  0.37060  0.01470  Biso   1.000  C
  C528     1.0000 0.30700  0.19950  0.37840  Biso   1.000  C
  C529     1.0000 0.00970  0.33160  0.08900  Biso   1.000  C
  C530     1.0000 0.03260  0.33480  0.13600  Biso   1.000  C
  C531     1.0000 0.75300  0.42180  0.50940  Biso   1.000  C
  C532     1.0000 0.77720  0.42140  0.55950  Biso   1.000  C
  C533     1.0000 0.74970  0.39640  0.58050  Biso   1.000  C
  C534     1.0000 0.70170  0.37170  0.55780  Biso   1.000  C
  C535     1.0000 0.67960  0.37230  0.50950  Biso   1.000  C
  C536     1.0000 0.70550  0.39910  0.48810  Biso   1.000  C
  C537     1.0000 0.64100  0.33260  0.48850  Biso   1.000  C
  C538     1.0000 0.59900  0.32790  0.50180  Biso   1.000  C
  C539     1.0000 0.55400  0.29840  0.47950  Biso   1.000  C
  C540     1.0000 0.55210  0.27270  0.44230  Biso   1.000  C
  C541     1.0000 0.59430  0.27370  0.42800  Biso   1.000  C
  C542     1.0000 0.63860  0.30720  0.45200  Biso   1.000  C
  C543     1.0000 0.83240  0.38620  0.65690  Biso   1.000  C
  C544     1.0000 0.85420  0.38680  0.70190  Biso   1.000  C
  C545     1.0000 0.82070  0.38950  0.72880  Biso   1.000  C
  C546     1.0000 0.76090  0.38990  0.70540  Biso   1.000  C
  C547     1.0000 0.74200  0.39270  0.65600  Biso   1.000  C
  C548     1.0000 0.77660  0.39300  0.63270  Biso   1.000  C
  C549     1.0000 0.84030  0.44870  0.50340  Biso   1.000  C
  C550     1.0000 0.86920  0.47840  0.48510  Biso   1.000  C
  C551     1.0000 0.75250  0.47650  0.44510  Biso   1.000  C
  C552     1.0000 0.78830  0.49180  0.42540  Biso   1.000  C
  C553     1.0000 0.78330  0.45080  0.48400  Biso   1.000  C
  Zn29     1.0000 0.35096  0.11012  0.36047  Biso   1.000  Zn
  O92      1.0000 0.42400  0.13270  0.39426  Biso   1.000  O
  O93      1.0000 0.33300  0.05040  0.38310  Biso   1.000  O
  O94      1.0000 0.33330  0.89200  0.79384  Biso   1.000  O
  O95      1.0000 0.79880  0.65700  0.36350  Biso   1.000  O
  Zn30     1.0000 0.46696  0.08008  0.43106  Biso   1.000  Zn
  Zn31     1.0000 0.45798  0.15557  0.35312  Biso   1.000  Zn
  Zn32     1.0000 0.42168  0.18441  0.43468  Biso   1.000  Zn
  C554     1.0000 0.36730  0.02420  0.41490  Biso   1.000  C
  O96      1.0000 0.41800  0.02650  0.42820  Biso   1.000  O
  O97      1.0000 0.51850  0.05030  0.40920  Biso   1.000  O
  O98      1.0000 0.50020  0.90630  0.99480  Biso   1.000  O
  O99      1.0000 0.51300  0.10400  0.35610  Biso   1.000  O
  O100     1.0000 0.40100  0.84450  0.79010  Biso   1.000  O
  O101     1.0000 0.00920  0.70790  0.38640  Biso   1.000  O
  O102     1.0000 0.97170  0.73580  0.43330  Biso   1.000  O
  O103     1.0000 0.84930  0.71370  0.40980  Biso   1.000  O
  O104     1.0000 0.45700  0.83670  0.99914  Biso   1.000  O
  C555     1.0000 0.34480  0.98650  0.43880  Biso   1.000  C
  C556     1.0000 0.52350  0.06210  0.37440  Biso   1.000  C
  C557     1.0000 0.38240  0.96280  0.47620  Biso   1.000  C
  C558     1.0000 0.28930  0.97500  0.42360  Biso   1.000  C
  C559     1.0000 0.54730  0.02600  0.35160  Biso   1.000  C
  C560     1.0000 0.36440  0.92760  0.49850  Biso   1.000  C
  C561     1.0000 0.27140  0.93990  0.44590  Biso   1.000  C
  C562     1.0000 0.54970  0.03650  0.31040  Biso   1.000  C
  C563     1.0000 0.55980  0.98090  0.36920  Biso   1.000  C
  C564     1.0000 0.30900  0.91620  0.48340  Biso   1.000  C
  H92      1.0000 0.53950  0.06780  0.29750  Biso   1.000  H
  C565     1.0000 0.56730  0.00110  0.28730  Biso   1.000  C
  C566     1.0000 0.57510  0.94540  0.34640  Biso   1.000  C
  H93      1.0000 0.55800  0.97370  0.39760  Biso   1.000  H
  C567     1.0000 0.28630  0.88520  0.51090  Biso   1.000  C
  H94      1.0000 0.57090  0.00890  0.25960  Biso   1.000  H
  C568     1.0000 0.57960  0.95430  0.30520  Biso   1.000  C
  H95      1.0000 0.58290  0.91380  0.35920  Biso   1.000  H
  C569     1.0000 0.30900  0.88600  0.55790  Biso   1.000  C
  C570     1.0000 0.24020  0.85700  0.48830  Biso   1.000  C
  C571     1.0000 0.59450  0.91560  0.28110  Biso   1.000  C
  C572     1.0000 0.28560  0.85870  0.58240  Biso   1.000  C
  C573     1.0000 0.21690  0.82960  0.51280  Biso   1.000  C
  C574     1.0000 0.57190  0.91450  0.23330  Biso   1.000  C
  C575     1.0000 0.63120  0.87920  0.30360  Biso   1.000  C
  C576     1.0000 0.23960  0.83040  0.55980  Biso   1.000  C
  C577     1.0000 0.30960  0.85690  0.63190  Biso   1.000  C
  C578     1.0000 0.15930  0.80800  0.48490  Biso   1.000  C
  H96      1.0000 0.54730  0.93940  0.21700  Biso   1.000  H
  C579     1.0000 0.58560  0.87620  0.20900  Biso   1.000  C
  C580     1.0000 0.64630  0.84270  0.28220  Biso   1.000  C
  H97      1.0000 0.64670  0.87980  0.33570  Biso   1.000  H
  C581     1.0000 0.36530  0.85200  0.65770  Biso   1.000  C
  C582     1.0000 0.27310  0.86550  0.65300  Biso   1.000  C
  C583     1.0000 0.11420  0.81310  0.49680  Biso   1.000  C
  C584     1.0000 0.15650  0.77720  0.44970  Biso   1.000  C
  C585     1.0000 0.62160  0.84070  0.23370  Biso   1.000  C
  C586     1.0000 0.56050  0.87590  0.15840  Biso   1.000  C
  C587     1.0000 0.68530  0.80520  0.30840  Biso   1.000  C
  C588     1.0000 0.38470  0.85590  0.70460  Biso   1.000  C
  C589     1.0000 0.29240  0.86930  0.69990  Biso   1.000  C
  C590     1.0000 0.06630  0.78740  0.47360  Biso   1.000  C
  C591     1.0000 0.10860  0.75150  0.42640  Biso   1.000  C
  H98      1.0000 0.63010  0.81450  0.21830  Biso   1.000  H
  C592     1.0000 0.55640  0.91710  0.13350  Biso   1.000  C
  C593     1.0000 0.55360  0.83050  0.13800  Biso   1.000  C
  C594     1.0000 0.72790  0.81630  0.34720  Biso   1.000  C
  C595     1.0000 0.68100  0.75730  0.29380  Biso   1.000  C
  C596     1.0000 0.34820  0.86450  0.72560  Biso   1.000  C
  C597     1.0000 0.06350  0.75660  0.43840  Biso   1.000  C
  H99      1.0000 0.56890  0.94700  0.14870  Biso   1.000  H
  C598     1.0000 0.53490  0.91610  0.08750  Biso   1.000  C
  C599     1.0000 0.54020  0.83250  0.09160  Biso   1.000  C
  H100     1.0000 0.72970  0.84820  0.35890  Biso   1.000  H
  C600     1.0000 0.76860  0.78440  0.37070  Biso   1.000  C
  C601     1.0000 0.71920  0.72340  0.31550  Biso   1.000  C
  H101     1.0000 0.65030  0.74810  0.26760  Biso   1.000  H
  C602     1.0000 0.36330  0.87520  0.77515  Biso   1.000  C
  C603     1.0000 0.01030  0.73250  0.41780  Biso   1.000  C
  H102     1.0000 0.53350  0.94490  0.07080  Biso   1.000  H
  C604     1.0000 0.51460  0.87190  0.06470  Biso   1.000  C
  H103     1.0000 0.79890  0.79430  0.39690  Biso   1.000  H
  C605     1.0000 0.76390  0.73690  0.35460  Biso   1.000  C
  H104     1.0000 0.71570  0.69110  0.30440  Biso   1.000  H
  C606     1.0000 0.49040  0.87060  0.01470  Biso   1.000  C
  C607     1.0000 0.80700  0.69950  0.37840  Biso   1.000  C
  C608     1.0000 0.50970  0.83160  0.08900  Biso   1.000  C
  C609     1.0000 0.53260  0.83480  0.13600  Biso   1.000  C
  C610     1.0000 0.25300  0.92180  0.50940  Biso   1.000  C
  C611     1.0000 0.27720  0.92140  0.55950  Biso   1.000  C
  C612     1.0000 0.24970  0.89640  0.58050  Biso   1.000  C
  C613     1.0000 0.20170  0.87170  0.55780  Biso   1.000  C
  C614     1.0000 0.17960  0.87230  0.50950  Biso   1.000  C
  C615     1.0000 0.20550  0.89910  0.48810  Biso   1.000  C
  C616     1.0000 0.14100  0.83260  0.48850  Biso   1.000  C
  C617     1.0000 0.09900  0.82790  0.50180  Biso   1.000  C
  C618     1.0000 0.05400  0.79840  0.47950  Biso   1.000  C
  C619     1.0000 0.05210  0.77270  0.44230  Biso   1.000  C
  C620     1.0000 0.09430  0.77370  0.42800  Biso   1.000  C
  C621     1.0000 0.13860  0.80720  0.45200  Biso   1.000  C
  C622     1.0000 0.33240  0.88620  0.65690  Biso   1.000  C
  C623     1.0000 0.35420  0.88680  0.70190  Biso   1.000  C
  C624     1.0000 0.32070  0.88950  0.72880  Biso   1.000  C
  C625     1.0000 0.26090  0.88990  0.70540  Biso   1.000  C
  C626     1.0000 0.24200  0.89270  0.65600  Biso   1.000  C
  C627     1.0000 0.27660  0.89300  0.63270  Biso   1.000  C
  C628     1.0000 0.34030  0.94870  0.50340  Biso   1.000  C
  C629     1.0000 0.36920  0.97840  0.48510  Biso   1.000  C
  C630     1.0000 0.25250  0.97650  0.44510  Biso   1.000  C
  C631     1.0000 0.28830  0.99180  0.42540  Biso   1.000  C
  C632     1.0000 0.28330  0.95080  0.48400  Biso   1.000  C
