data_image0
_cell_length_a       23.63
_cell_length_b       23.63
_cell_length_c       41.39
_cell_angle_alpha    90
_cell_angle_beta     90
_cell_angle_gamma    120

_symmetry_space_group_name_H-M    "P 1"
_symmetry_int_tables_number       1

loop_
  _symmetry_equiv_pos_as_xyz
  'x, y, z'

loop_
  _atom_site_label
  _atom_site_occupancy
  _atom_site_fract_x
  _atom_site_fract_y
  _atom_site_fract_z
  _atom_site_thermal_displace_type
  _atom_site_B_iso_or_equiv
  _atom_site_type_symbol
  Cu1      1.0000 0.28977  0.55695  0.57870  Biso   1.000  Cu
  F1       1.0000 0.59800  0.34600  0.64030  Biso   1.000  F
  F2       1.0000 0.50210  0.30960  0.66336  Biso   1.000  F
  F3       1.0000 0.60380  0.54820  0.74501  Biso   1.000  F
  F4       1.0000 0.67130  0.53610  0.76870  Biso   1.000  F
  F5       1.0000 0.69430  0.59560  0.72423  Biso   1.000  F
  F6       1.0000 0.50230  0.70230  0.66710  Biso   1.000  F
  F7       1.0000 0.41110  0.67250  0.68880  Biso   1.000  F
  F8       1.0000 0.45280  0.61720  0.70225  Biso   1.000  F
  F9       1.0000 0.33630  0.47060  0.56490  Biso   1.000  F
  F10      1.0000 0.42400  0.47090  0.58466  Biso   1.000  F
  F11      1.0000 0.32910  0.41720  0.60433  Biso   1.000  F
  F12      1.0000 0.16050  0.46060  0.59684  Biso   1.000  F
  F13      1.0000 0.12210  0.39530  0.55589  Biso   1.000  F
  F14      1.0000 0.07070  0.43520  0.57871  Biso   1.000  F
  F15      1.0000 0.14890  0.59180  0.45913  Biso   1.000  F
  F16      1.0000 0.18010  0.66940  0.49112  Biso   1.000  F
  F17      1.0000 0.24930  0.65260  0.46825  Biso   1.000  F
  N1       1.0000 0.66157  0.44565  0.72079  Biso   1.000  N
  N2       1.0000 0.63735  0.39824  0.69820  Biso   1.000  N
  N3       1.0000 0.37410  0.61120  0.62987  Biso   1.000  N
  N4       1.0000 0.35298  0.56270  0.60736  Biso   1.000  N
  N5       1.0000 0.22539  0.54859  0.54895  Biso   1.000  N
  N6       1.0000 0.24280  0.59600  0.52554  Biso   1.000  N
  C1       1.0000 0.63570  0.48280  0.71622  Biso   1.000  C
  C2       1.0000 0.59140  0.46060  0.69076  Biso   1.000  C
  C3       1.0000 0.59420  0.40570  0.68047  Biso   1.000  C
  C4       1.0000 0.55930  0.36050  0.65319  Biso   1.000  C
  C5       1.0000 0.65600  0.54250  0.73749  Biso   1.000  C
  C6       1.0000 0.54970  0.48600  0.67786  Biso   1.000  C
  C7       1.0000 0.47950  0.44470  0.67563  Biso   1.000  C
  H1       1.0000 0.45970  0.40183  0.68303  Biso   1.000  H
  C8       1.0000 0.44280  0.46760  0.66302  Biso   1.000  C
  H2       1.0000 0.39785  0.43997  0.66140  Biso   1.000  H
  C9       1.0000 0.47020  0.53190  0.65227  Biso   1.000  C
  C10      1.0000 0.53300  0.57150  0.65492  Biso   1.000  C
  H3       1.0000 0.55023  0.61484  0.64866  Biso   1.000  H
  C11      1.0000 0.57620  0.55080  0.66707  Biso   1.000  C
  H4       1.0000 0.62101  0.57965  0.66784  Biso   1.000  H
  C12      1.0000 0.42440  0.55290  0.63849  Biso   1.000  C
  C13      1.0000 0.38340  0.52900  0.61233  Biso   1.000  C
  C14      1.0000 0.41710  0.60620  0.64886  Biso   1.000  C
  C15      1.0000 0.44810  0.65180  0.67530  Biso   1.000  C
  C16      1.0000 0.36850  0.47540  0.59180  Biso   1.000  C
  C17      1.0000 0.16080  0.50510  0.54600  Biso   1.000  C
  C18      1.0000 0.13400  0.52380  0.52093  Biso   1.000  C
  C19      1.0000 0.18730  0.57930  0.50951  Biso   1.000  C
  C20      1.0000 0.19210  0.62250  0.48124  Biso   1.000  C
  C21      1.0000 0.12960  0.45100  0.56952  Biso   1.000  C
  C22      1.0000 0.06420  0.48750  0.50987  Biso   1.000  C
  C23      1.0000 0.03030  0.42160  0.50501  Biso   1.000  C
  H5       1.0000 0.05084  0.39752  0.50894  Biso   1.000  H
  C24      1.0000 0.03210  0.52460  0.50546  Biso   1.000  C
  H6       1.0000 0.05363  0.56914  0.50981  Biso   1.000  H
  F18      1.0000 0.53400  0.38100  0.63270  Biso   1.000  F
  F19      1.0000 0.58770  0.32530  0.64020  Biso   1.000  F
  F20      1.0000 0.69100  0.54100  0.76000  Biso   1.000  F
  F21      1.0000 0.49720  0.65700  0.68540  Biso   1.000  F
  F22      1.0000 0.45600  0.71300  0.66920  Biso   1.000  F
  F23      1.0000 0.36000  0.48120  0.56260  Biso   1.000  F
  F24      1.0000 0.56500  0.39900  0.62670  Biso   1.000  F
  Cu2      1.0000 0.44305  0.73282  0.57870  Biso   1.000  Cu
  F25      1.0000 0.65400  0.25200  0.64030  Biso   1.000  F
  F26      1.0000 0.69040  0.19250  0.66336  Biso   1.000  F
  F27      1.0000 0.45180  0.05560  0.74501  Biso   1.000  F
  F28      1.0000 0.46390  0.13520  0.76870  Biso   1.000  F
  F29      1.0000 0.40440  0.09870  0.72423  Biso   1.000  F
  F30      1.0000 0.29770  0.80000  0.66710  Biso   1.000  F
  F31      1.0000 0.32750  0.73860  0.68880  Biso   1.000  F
  F32      1.0000 0.38280  0.83560  0.70225  Biso   1.000  F
  F33      1.0000 0.52940  0.86570  0.56490  Biso   1.000  F
  F34      1.0000 0.52910  0.95310  0.58466  Biso   1.000  F
  F35      1.0000 0.58280  0.91190  0.60433  Biso   1.000  F
  F36      1.0000 0.53940  0.69990  0.59684  Biso   1.000  F
  F37      1.0000 0.60470  0.72680  0.55589  Biso   1.000  F
  F38      1.0000 0.56480  0.63550  0.57871  Biso   1.000  F
  F39      1.0000 0.40820  0.55710  0.45913  Biso   1.000  F
  F40      1.0000 0.33060  0.51070  0.49112  Biso   1.000  F
  F41      1.0000 0.34740  0.59670  0.46825  Biso   1.000  F
  N7       1.0000 0.55435  0.21592  0.72079  Biso   1.000  N
  N8       1.0000 0.60176  0.23911  0.69820  Biso   1.000  N
  N9       1.0000 0.38880  0.76290  0.62987  Biso   1.000  N
  N10      1.0000 0.43730  0.79028  0.60736  Biso   1.000  N
  N11      1.0000 0.45141  0.67680  0.54895  Biso   1.000  N
  N12      1.0000 0.40400  0.64680  0.52554  Biso   1.000  N
  C25      1.0000 0.51720  0.15290  0.71622  Biso   1.000  C
  C26      1.0000 0.53940  0.13080  0.69076  Biso   1.000  C
  C27      1.0000 0.59430  0.18850  0.68047  Biso   1.000  C
  C28      1.0000 0.63950  0.19880  0.65319  Biso   1.000  C
  C29      1.0000 0.45750  0.11350  0.73749  Biso   1.000  C
  C30      1.0000 0.51400  0.06370  0.67786  Biso   1.000  C
  C31      1.0000 0.55530  0.03480  0.67563  Biso   1.000  C
  H7       1.0000 0.59817  0.05787  0.68303  Biso   1.000  H
  C32      1.0000 0.53240  0.97520  0.66302  Biso   1.000  C
  H8       1.0000 0.56003  0.95788  0.66140  Biso   1.000  H
  C33      1.0000 0.46810  0.93830  0.65227  Biso   1.000  C
  C34      1.0000 0.42850  0.96150  0.65492  Biso   1.000  C
  H9       1.0000 0.38516  0.93539  0.64866  Biso   1.000  H
  C35      1.0000 0.44920  0.02540  0.66707  Biso   1.000  C
  H10      1.0000 0.42035  0.04136  0.66784  Biso   1.000  H
  C36      1.0000 0.44710  0.87150  0.63849  Biso   1.000  C
  C37      1.0000 0.47100  0.85440  0.61233  Biso   1.000  C
  C38      1.0000 0.39380  0.81090  0.64886  Biso   1.000  C
  C39      1.0000 0.34820  0.79630  0.67530  Biso   1.000  C
  C40      1.0000 0.52460  0.89310  0.59180  Biso   1.000  C
  C41      1.0000 0.49490  0.65570  0.54600  Biso   1.000  C
  C42      1.0000 0.47620  0.61020  0.52093  Biso   1.000  C
  C43      1.0000 0.42070  0.60800  0.50951  Biso   1.000  C
  C44      1.0000 0.37750  0.56960  0.48124  Biso   1.000  C
  C45      1.0000 0.54900  0.67860  0.56952  Biso   1.000  C
  C46      1.0000 0.51250  0.57670  0.50987  Biso   1.000  C
  C47      1.0000 0.57840  0.60870  0.50501  Biso   1.000  C
  H11      1.0000 0.60248  0.65332  0.50894  Biso   1.000  H
  C48      1.0000 0.47540  0.50750  0.50546  Biso   1.000  C
  H12      1.0000 0.43086  0.48449  0.50981  Biso   1.000  H
  F42      1.0000 0.61900  0.15300  0.63270  Biso   1.000  F
  F43      1.0000 0.67470  0.26240  0.64020  Biso   1.000  F
  F44      1.0000 0.45900  0.15000  0.76000  Biso   1.000  F
  F45      1.0000 0.34300  0.84020  0.68540  Biso   1.000  F
  F46      1.0000 0.28700  0.74300  0.66920  Biso   1.000  F
  F47      1.0000 0.51880  0.87880  0.56260  Biso   1.000  F
  F48      1.0000 0.60100  0.16600  0.62670  Biso   1.000  F
  Cu3      1.0000 0.26718  0.71023  0.57870  Biso   1.000  Cu
  F49      1.0000 0.74800  0.40200  0.64030  Biso   1.000  F
  F50      1.0000 0.80750  0.49790  0.66336  Biso   1.000  F
  F51      1.0000 0.94440  0.39620  0.74501  Biso   1.000  F
  F52      1.0000 0.86480  0.32870  0.76870  Biso   1.000  F
  F53      1.0000 0.90130  0.30570  0.72423  Biso   1.000  F
  F54      1.0000 0.20000  0.49770  0.66710  Biso   1.000  F
  F55      1.0000 0.26140  0.58890  0.68880  Biso   1.000  F
  F56      1.0000 0.16440  0.54720  0.70225  Biso   1.000  F
  F57      1.0000 0.13430  0.66370  0.56490  Biso   1.000  F
  F58      1.0000 0.04690  0.57600  0.58466  Biso   1.000  F
  F59      1.0000 0.08810  0.67090  0.60433  Biso   1.000  F
  F60      1.0000 0.30010  0.83950  0.59684  Biso   1.000  F
  F61      1.0000 0.27320  0.87790  0.55589  Biso   1.000  F
  F62      1.0000 0.36450  0.92930  0.57871  Biso   1.000  F
  F63      1.0000 0.44290  0.85110  0.45913  Biso   1.000  F
  F64      1.0000 0.48930  0.81990  0.49112  Biso   1.000  F
  F65      1.0000 0.40330  0.75070  0.46825  Biso   1.000  F
  N13      1.0000 0.78408  0.33843  0.72079  Biso   1.000  N
  N14      1.0000 0.76089  0.36265  0.69820  Biso   1.000  N
  N15      1.0000 0.23710  0.62590  0.62987  Biso   1.000  N
  N16      1.0000 0.20972  0.64702  0.60736  Biso   1.000  N
  N17      1.0000 0.32320  0.77461  0.54895  Biso   1.000  N
  N18      1.0000 0.35320  0.75720  0.52554  Biso   1.000  N
  C49      1.0000 0.84710  0.36430  0.71622  Biso   1.000  C
  C50      1.0000 0.86920  0.40860  0.69076  Biso   1.000  C
  C51      1.0000 0.81150  0.40580  0.68047  Biso   1.000  C
  C52      1.0000 0.80120  0.44070  0.65319  Biso   1.000  C
  C53      1.0000 0.88650  0.34400  0.73749  Biso   1.000  C
  C54      1.0000 0.93630  0.45030  0.67786  Biso   1.000  C
  C55      1.0000 0.96520  0.52050  0.67563  Biso   1.000  C
  H13      1.0000 0.94213  0.54030  0.68303  Biso   1.000  H
  C56      1.0000 0.02480  0.55720  0.66302  Biso   1.000  C
  H14      1.0000 0.04212  0.60215  0.66140  Biso   1.000  H
  C57      1.0000 0.06170  0.52980  0.65227  Biso   1.000  C
  C58      1.0000 0.03850  0.46700  0.65492  Biso   1.000  C
  H15      1.0000 0.06461  0.44977  0.64866  Biso   1.000  H
  C59      1.0000 0.97460  0.42380  0.66707  Biso   1.000  C
  H16      1.0000 0.95864  0.37899  0.66784  Biso   1.000  H
  C60      1.0000 0.12850  0.57560  0.63849  Biso   1.000  C
  C61      1.0000 0.14560  0.61660  0.61233  Biso   1.000  C
  C62      1.0000 0.18910  0.58290  0.64886  Biso   1.000  C
  C63      1.0000 0.20370  0.55190  0.67530  Biso   1.000  C
  C64      1.0000 0.10690  0.63150  0.59180  Biso   1.000  C
  C65      1.0000 0.34430  0.83920  0.54600  Biso   1.000  C
  C66      1.0000 0.38980  0.86600  0.52093  Biso   1.000  C
  C67      1.0000 0.39200  0.81270  0.50951  Biso   1.000  C
  C68      1.0000 0.43040  0.80790  0.48124  Biso   1.000  C
  C69      1.0000 0.32140  0.87040  0.56952  Biso   1.000  C
  C70      1.0000 0.42330  0.93580  0.50987  Biso   1.000  C
  C71      1.0000 0.39130  0.96970  0.50501  Biso   1.000  C
  H17      1.0000 0.34668  0.94916  0.50894  Biso   1.000  H
  C72      1.0000 0.49250  0.96790  0.50546  Biso   1.000  C
  H18      1.0000 0.51551  0.94637  0.50981  Biso   1.000  H
  F66      1.0000 0.84700  0.46600  0.63270  Biso   1.000  F
  F67      1.0000 0.73760  0.41230  0.64020  Biso   1.000  F
  F68      1.0000 0.85000  0.30900  0.76000  Biso   1.000  F
  F69      1.0000 0.15980  0.50280  0.68540  Biso   1.000  F
  F70      1.0000 0.25700  0.54400  0.66920  Biso   1.000  F
  F71      1.0000 0.12120  0.64000  0.56260  Biso   1.000  F
  F72      1.0000 0.83400  0.43500  0.62670  Biso   1.000  F
  Cu4      1.0000 0.71023  0.44305  0.07870  Biso   1.000  Cu
  F73      1.0000 0.40200  0.65400  0.14030  Biso   1.000  F
  F74      1.0000 0.49790  0.69040  0.16336  Biso   1.000  F
  F75      1.0000 0.39620  0.45180  0.24501  Biso   1.000  F
  F76      1.0000 0.32870  0.46390  0.26870  Biso   1.000  F
  F77      1.0000 0.30570  0.40440  0.22423  Biso   1.000  F
  F78      1.0000 0.49770  0.29770  0.16710  Biso   1.000  F
  F79      1.0000 0.58890  0.32750  0.18880  Biso   1.000  F
  F80      1.0000 0.54720  0.38280  0.20225  Biso   1.000  F
  F81      1.0000 0.66370  0.52940  0.06490  Biso   1.000  F
  F82      1.0000 0.57600  0.52910  0.08466  Biso   1.000  F
  F83      1.0000 0.67090  0.58280  0.10433  Biso   1.000  F
  F84      1.0000 0.83950  0.53940  0.09684  Biso   1.000  F
  F85      1.0000 0.87790  0.60470  0.05589  Biso   1.000  F
  F86      1.0000 0.92930  0.56480  0.07871  Biso   1.000  F
  F87      1.0000 0.85110  0.40820  0.95913  Biso   1.000  F
  F88      1.0000 0.81990  0.33060  0.99112  Biso   1.000  F
  F89      1.0000 0.75070  0.34740  0.96825  Biso   1.000  F
  N19      1.0000 0.33843  0.55435  0.22079  Biso   1.000  N
  N20      1.0000 0.36265  0.60176  0.19820  Biso   1.000  N
  N21      1.0000 0.62590  0.38880  0.12987  Biso   1.000  N
  N22      1.0000 0.64702  0.43730  0.10736  Biso   1.000  N
  N23      1.0000 0.77461  0.45141  0.04895  Biso   1.000  N
  N24      1.0000 0.75720  0.40400  0.02554  Biso   1.000  N
  C73      1.0000 0.36430  0.51720  0.21622  Biso   1.000  C
  C74      1.0000 0.40860  0.53940  0.19076  Biso   1.000  C
  C75      1.0000 0.40580  0.59430  0.18047  Biso   1.000  C
  C76      1.0000 0.44070  0.63950  0.15319  Biso   1.000  C
  C77      1.0000 0.34400  0.45750  0.23749  Biso   1.000  C
  C78      1.0000 0.45030  0.51400  0.17786  Biso   1.000  C
  C79      1.0000 0.52050  0.55530  0.17563  Biso   1.000  C
  H19      1.0000 0.54030  0.59817  0.18303  Biso   1.000  H
  C80      1.0000 0.55720  0.53240  0.16302  Biso   1.000  C
  H20      1.0000 0.60215  0.56003  0.16140  Biso   1.000  H
  C81      1.0000 0.52980  0.46810  0.15227  Biso   1.000  C
  C82      1.0000 0.46700  0.42850  0.15492  Biso   1.000  C
  H21      1.0000 0.44977  0.38516  0.14866  Biso   1.000  H
  C83      1.0000 0.42380  0.44920  0.16707  Biso   1.000  C
  H22      1.0000 0.37899  0.42035  0.16784  Biso   1.000  H
  C84      1.0000 0.57560  0.44710  0.13849  Biso   1.000  C
  C85      1.0000 0.61660  0.47100  0.11233  Biso   1.000  C
  C86      1.0000 0.58290  0.39380  0.14886  Biso   1.000  C
  C87      1.0000 0.55190  0.34820  0.17530  Biso   1.000  C
  C88      1.0000 0.63150  0.52460  0.09180  Biso   1.000  C
  C89      1.0000 0.83920  0.49490  0.04600  Biso   1.000  C
  C90      1.0000 0.86600  0.47620  0.02093  Biso   1.000  C
  C91      1.0000 0.81270  0.42070  0.00951  Biso   1.000  C
  C92      1.0000 0.80790  0.37750  0.98124  Biso   1.000  C
  C93      1.0000 0.87040  0.54900  0.06952  Biso   1.000  C
  C94      1.0000 0.93580  0.51250  0.00987  Biso   1.000  C
  C95      1.0000 0.96970  0.57840  0.00501  Biso   1.000  C
  H23      1.0000 0.94916  0.60248  0.00894  Biso   1.000  H
  C96      1.0000 0.96790  0.47540  0.00546  Biso   1.000  C
  H24      1.0000 0.94637  0.43086  0.00981  Biso   1.000  H
  F90      1.0000 0.46600  0.61900  0.13270  Biso   1.000  F
  F91      1.0000 0.41230  0.67470  0.14020  Biso   1.000  F
  F92      1.0000 0.30900  0.45900  0.26000  Biso   1.000  F
  F93      1.0000 0.50280  0.34300  0.18540  Biso   1.000  F
  F94      1.0000 0.54400  0.28700  0.16920  Biso   1.000  F
  F95      1.0000 0.64000  0.51880  0.06260  Biso   1.000  F
  F96      1.0000 0.43500  0.60100  0.12670  Biso   1.000  F
  Cu5      1.0000 0.55695  0.26718  0.07870  Biso   1.000  Cu
  F97      1.0000 0.34600  0.74800  0.14030  Biso   1.000  F
  F98      1.0000 0.30960  0.80750  0.16336  Biso   1.000  F
  F99      1.0000 0.54820  0.94440  0.24501  Biso   1.000  F
  F100     1.0000 0.53610  0.86480  0.26870  Biso   1.000  F
  F101     1.0000 0.59560  0.90130  0.22423  Biso   1.000  F
  F102     1.0000 0.70230  0.20000  0.16710  Biso   1.000  F
  F103     1.0000 0.67250  0.26140  0.18880  Biso   1.000  F
  F104     1.0000 0.61720  0.16440  0.20225  Biso   1.000  F
  F105     1.0000 0.47060  0.13430  0.06490  Biso   1.000  F
  F106     1.0000 0.47090  0.04690  0.08466  Biso   1.000  F
  F107     1.0000 0.41720  0.08810  0.10433  Biso   1.000  F
  F108     1.0000 0.46060  0.30010  0.09684  Biso   1.000  F
  F109     1.0000 0.39530  0.27320  0.05589  Biso   1.000  F
  F110     1.0000 0.43520  0.36450  0.07871  Biso   1.000  F
  F111     1.0000 0.59180  0.44290  0.95913  Biso   1.000  F
  F112     1.0000 0.66940  0.48930  0.99112  Biso   1.000  F
  F113     1.0000 0.65260  0.40330  0.96825  Biso   1.000  F
  N25      1.0000 0.44565  0.78408  0.22079  Biso   1.000  N
  N26      1.0000 0.39824  0.76089  0.19820  Biso   1.000  N
  N27      1.0000 0.61120  0.23710  0.12987  Biso   1.000  N
  N28      1.0000 0.56270  0.20972  0.10736  Biso   1.000  N
  N29      1.0000 0.54859  0.32320  0.04895  Biso   1.000  N
  N30      1.0000 0.59600  0.35320  0.02554  Biso   1.000  N
  C97      1.0000 0.48280  0.84710  0.21622  Biso   1.000  C
  C98      1.0000 0.46060  0.86920  0.19076  Biso   1.000  C
  C99      1.0000 0.40570  0.81150  0.18047  Biso   1.000  C
  C100     1.0000 0.36050  0.80120  0.15319  Biso   1.000  C
  C101     1.0000 0.54250  0.88650  0.23749  Biso   1.000  C
  C102     1.0000 0.48600  0.93630  0.17786  Biso   1.000  C
  C103     1.0000 0.44470  0.96520  0.17563  Biso   1.000  C
  H25      1.0000 0.40183  0.94213  0.18303  Biso   1.000  H
  C104     1.0000 0.46760  0.02480  0.16302  Biso   1.000  C
  H26      1.0000 0.43997  0.04212  0.16140  Biso   1.000  H
  C105     1.0000 0.53190  0.06170  0.15227  Biso   1.000  C
  C106     1.0000 0.57150  0.03850  0.15492  Biso   1.000  C
  H27      1.0000 0.61484  0.06461  0.14866  Biso   1.000  H
  C107     1.0000 0.55080  0.97460  0.16707  Biso   1.000  C
  H28      1.0000 0.57965  0.95864  0.16784  Biso   1.000  H
  C108     1.0000 0.55290  0.12850  0.13849  Biso   1.000  C
  C109     1.0000 0.52900  0.14560  0.11233  Biso   1.000  C
  C110     1.0000 0.60620  0.18910  0.14886  Biso   1.000  C
  C111     1.0000 0.65180  0.20370  0.17530  Biso   1.000  C
  C112     1.0000 0.47540  0.10690  0.09180  Biso   1.000  C
  C113     1.0000 0.50510  0.34430  0.04600  Biso   1.000  C
  C114     1.0000 0.52380  0.38980  0.02093  Biso   1.000  C
  C115     1.0000 0.57930  0.39200  0.00951  Biso   1.000  C
  C116     1.0000 0.62250  0.43040  0.98124  Biso   1.000  C
  C117     1.0000 0.45100  0.32140  0.06952  Biso   1.000  C
  C118     1.0000 0.48750  0.42330  0.00987  Biso   1.000  C
  C119     1.0000 0.42160  0.39130  0.00501  Biso   1.000  C
  H29      1.0000 0.39752  0.34668  0.00894  Biso   1.000  H
  C120     1.0000 0.52460  0.49250  0.00546  Biso   1.000  C
  H30      1.0000 0.56914  0.51551  0.00981  Biso   1.000  H
  F114     1.0000 0.38100  0.84700  0.13270  Biso   1.000  F
  F115     1.0000 0.32530  0.73760  0.14020  Biso   1.000  F
  F116     1.0000 0.54100  0.85000  0.26000  Biso   1.000  F
  F117     1.0000 0.65700  0.15980  0.18540  Biso   1.000  F
  F118     1.0000 0.71300  0.25700  0.16920  Biso   1.000  F
  F119     1.0000 0.48120  0.12120  0.06260  Biso   1.000  F
  F120     1.0000 0.39900  0.83400  0.12670  Biso   1.000  F
  Cu6      1.0000 0.73282  0.28977  0.07870  Biso   1.000  Cu
  F121     1.0000 0.25200  0.59800  0.14030  Biso   1.000  F
  F122     1.0000 0.19250  0.50210  0.16336  Biso   1.000  F
  F123     1.0000 0.05560  0.60380  0.24501  Biso   1.000  F
  F124     1.0000 0.13520  0.67130  0.26870  Biso   1.000  F
  F125     1.0000 0.09870  0.69430  0.22423  Biso   1.000  F
  F126     1.0000 0.80000  0.50230  0.16710  Biso   1.000  F
  F127     1.0000 0.73860  0.41110  0.18880  Biso   1.000  F
  F128     1.0000 0.83560  0.45280  0.20225  Biso   1.000  F
  F129     1.0000 0.86570  0.33630  0.06490  Biso   1.000  F
  F130     1.0000 0.95310  0.42400  0.08466  Biso   1.000  F
  F131     1.0000 0.91190  0.32910  0.10433  Biso   1.000  F
  F132     1.0000 0.69990  0.16050  0.09684  Biso   1.000  F
  F133     1.0000 0.72680  0.12210  0.05589  Biso   1.000  F
  F134     1.0000 0.63550  0.07070  0.07871  Biso   1.000  F
  F135     1.0000 0.55710  0.14890  0.95913  Biso   1.000  F
  F136     1.0000 0.51070  0.18010  0.99112  Biso   1.000  F
  F137     1.0000 0.59670  0.24930  0.96825  Biso   1.000  F
  N31      1.0000 0.21592  0.66157  0.22079  Biso   1.000  N
  N32      1.0000 0.23911  0.63735  0.19820  Biso   1.000  N
  N33      1.0000 0.76290  0.37410  0.12987  Biso   1.000  N
  N34      1.0000 0.79028  0.35298  0.10736  Biso   1.000  N
  N35      1.0000 0.67680  0.22539  0.04895  Biso   1.000  N
  N36      1.0000 0.64680  0.24280  0.02554  Biso   1.000  N
  C121     1.0000 0.15290  0.63570  0.21622  Biso   1.000  C
  C122     1.0000 0.13080  0.59140  0.19076  Biso   1.000  C
  C123     1.0000 0.18850  0.59420  0.18047  Biso   1.000  C
  C124     1.0000 0.19880  0.55930  0.15319  Biso   1.000  C
  C125     1.0000 0.11350  0.65600  0.23749  Biso   1.000  C
  C126     1.0000 0.06370  0.54970  0.17786  Biso   1.000  C
  C127     1.0000 0.03480  0.47950  0.17563  Biso   1.000  C
  H31      1.0000 0.05787  0.45970  0.18303  Biso   1.000  H
  C128     1.0000 0.97520  0.44280  0.16302  Biso   1.000  C
  H32      1.0000 0.95788  0.39785  0.16140  Biso   1.000  H
  C129     1.0000 0.93830  0.47020  0.15227  Biso   1.000  C
  C130     1.0000 0.96150  0.53300  0.15492  Biso   1.000  C
  H33      1.0000 0.93539  0.55023  0.14866  Biso   1.000  H
  C131     1.0000 0.02540  0.57620  0.16707  Biso   1.000  C
  H34      1.0000 0.04136  0.62101  0.16784  Biso   1.000  H
  C132     1.0000 0.87150  0.42440  0.13849  Biso   1.000  C
  C133     1.0000 0.85440  0.38340  0.11233  Biso   1.000  C
  C134     1.0000 0.81090  0.41710  0.14886  Biso   1.000  C
  C135     1.0000 0.79630  0.44810  0.17530  Biso   1.000  C
  C136     1.0000 0.89310  0.36850  0.09180  Biso   1.000  C
  C137     1.0000 0.65570  0.16080  0.04600  Biso   1.000  C
  C138     1.0000 0.61020  0.13400  0.02093  Biso   1.000  C
  C139     1.0000 0.60800  0.18730  0.00951  Biso   1.000  C
  C140     1.0000 0.56960  0.19210  0.98124  Biso   1.000  C
  C141     1.0000 0.67860  0.12960  0.06952  Biso   1.000  C
  C142     1.0000 0.57670  0.06420  0.00987  Biso   1.000  C
  C143     1.0000 0.60870  0.03030  0.00501  Biso   1.000  C
  H35      1.0000 0.65332  0.05084  0.00894  Biso   1.000  H
  C144     1.0000 0.50750  0.03210  0.00546  Biso   1.000  C
  H36      1.0000 0.48449  0.05363  0.00981  Biso   1.000  H
  F138     1.0000 0.15300  0.53400  0.13270  Biso   1.000  F
  F139     1.0000 0.26240  0.58770  0.14020  Biso   1.000  F
  F140     1.0000 0.15000  0.69100  0.26000  Biso   1.000  F
  F141     1.0000 0.84020  0.49720  0.18540  Biso   1.000  F
  F142     1.0000 0.74300  0.45600  0.16920  Biso   1.000  F
  F143     1.0000 0.87880  0.36000  0.06260  Biso   1.000  F
  F144     1.0000 0.16600  0.56500  0.12670  Biso   1.000  F
  Cu7      1.0000 0.55695  0.28977  0.42130  Biso   1.000  Cu
  F145     1.0000 0.34600  0.59800  0.35970  Biso   1.000  F
  F146     1.0000 0.30960  0.50210  0.33664  Biso   1.000  F
  F147     1.0000 0.54820  0.60380  0.25499  Biso   1.000  F
  F148     1.0000 0.53610  0.67130  0.23130  Biso   1.000  F
  F149     1.0000 0.59560  0.69430  0.27577  Biso   1.000  F
  F150     1.0000 0.70230  0.50230  0.33290  Biso   1.000  F
  F151     1.0000 0.67250  0.41110  0.31120  Biso   1.000  F
  F152     1.0000 0.61720  0.45280  0.29775  Biso   1.000  F
  F153     1.0000 0.47060  0.33630  0.43510  Biso   1.000  F
  F154     1.0000 0.47090  0.42400  0.41534  Biso   1.000  F
  F155     1.0000 0.41720  0.32910  0.39567  Biso   1.000  F
  F156     1.0000 0.46060  0.16050  0.40316  Biso   1.000  F
  F157     1.0000 0.39530  0.12210  0.44411  Biso   1.000  F
  F158     1.0000 0.43520  0.07070  0.42129  Biso   1.000  F
  F159     1.0000 0.59180  0.14890  0.54087  Biso   1.000  F
  F160     1.0000 0.66940  0.18010  0.50888  Biso   1.000  F
  F161     1.0000 0.65260  0.24930  0.53175  Biso   1.000  F
  N37      1.0000 0.44565  0.66157  0.27921  Biso   1.000  N
  N38      1.0000 0.39824  0.63735  0.30180  Biso   1.000  N
  N39      1.0000 0.61120  0.37410  0.37013  Biso   1.000  N
  N40      1.0000 0.56270  0.35298  0.39264  Biso   1.000  N
  N41      1.0000 0.54859  0.22539  0.45105  Biso   1.000  N
  N42      1.0000 0.59600  0.24280  0.47446  Biso   1.000  N
  C145     1.0000 0.48280  0.63570  0.28378  Biso   1.000  C
  C146     1.0000 0.46060  0.59140  0.30924  Biso   1.000  C
  C147     1.0000 0.40570  0.59420  0.31953  Biso   1.000  C
  C148     1.0000 0.36050  0.55930  0.34681  Biso   1.000  C
  C149     1.0000 0.54250  0.65600  0.26251  Biso   1.000  C
  C150     1.0000 0.48600  0.54970  0.32214  Biso   1.000  C
  C151     1.0000 0.44470  0.47950  0.32437  Biso   1.000  C
  H37      1.0000 0.40183  0.45970  0.31697  Biso   1.000  H
  C152     1.0000 0.46760  0.44280  0.33698  Biso   1.000  C
  H38      1.0000 0.43997  0.39785  0.33860  Biso   1.000  H
  C153     1.0000 0.53190  0.47020  0.34773  Biso   1.000  C
  C154     1.0000 0.57150  0.53300  0.34508  Biso   1.000  C
  H39      1.0000 0.61484  0.55023  0.35134  Biso   1.000  H
  C155     1.0000 0.55080  0.57620  0.33293  Biso   1.000  C
  H40      1.0000 0.57965  0.62101  0.33216  Biso   1.000  H
  C156     1.0000 0.55290  0.42440  0.36151  Biso   1.000  C
  C157     1.0000 0.52900  0.38340  0.38767  Biso   1.000  C
  C158     1.0000 0.60620  0.41710  0.35114  Biso   1.000  C
  C159     1.0000 0.65180  0.44810  0.32470  Biso   1.000  C
  C160     1.0000 0.47540  0.36850  0.40820  Biso   1.000  C
  C161     1.0000 0.50510  0.16080  0.45400  Biso   1.000  C
  C162     1.0000 0.52380  0.13400  0.47907  Biso   1.000  C
  C163     1.0000 0.57930  0.18730  0.49049  Biso   1.000  C
  C164     1.0000 0.62250  0.19210  0.51876  Biso   1.000  C
  C165     1.0000 0.45100  0.12960  0.43048  Biso   1.000  C
  C166     1.0000 0.48750  0.06420  0.49013  Biso   1.000  C
  C167     1.0000 0.42160  0.03030  0.49499  Biso   1.000  C
  H41      1.0000 0.39752  0.05084  0.49106  Biso   1.000  H
  C168     1.0000 0.52460  0.03210  0.49454  Biso   1.000  C
  H42      1.0000 0.56914  0.05363  0.49019  Biso   1.000  H
  F162     1.0000 0.38100  0.53400  0.36730  Biso   1.000  F
  F163     1.0000 0.32530  0.58770  0.35980  Biso   1.000  F
  F164     1.0000 0.54100  0.69100  0.24000  Biso   1.000  F
  F165     1.0000 0.65700  0.49720  0.31460  Biso   1.000  F
  F166     1.0000 0.71300  0.45600  0.33080  Biso   1.000  F
  F167     1.0000 0.48120  0.36000  0.43740  Biso   1.000  F
  F168     1.0000 0.39900  0.56500  0.37330  Biso   1.000  F
  Cu8      1.0000 0.73282  0.44305  0.42130  Biso   1.000  Cu
  F169     1.0000 0.25200  0.65400  0.35970  Biso   1.000  F
  F170     1.0000 0.19250  0.69040  0.33664  Biso   1.000  F
  F171     1.0000 0.05560  0.45180  0.25499  Biso   1.000  F
  F172     1.0000 0.13520  0.46390  0.23130  Biso   1.000  F
  F173     1.0000 0.09870  0.40440  0.27577  Biso   1.000  F
  F174     1.0000 0.80000  0.29770  0.33290  Biso   1.000  F
  F175     1.0000 0.73860  0.32750  0.31120  Biso   1.000  F
  F176     1.0000 0.83560  0.38280  0.29775  Biso   1.000  F
  F177     1.0000 0.86570  0.52940  0.43510  Biso   1.000  F
  F178     1.0000 0.95310  0.52910  0.41534  Biso   1.000  F
  F179     1.0000 0.91190  0.58280  0.39567  Biso   1.000  F
  F180     1.0000 0.69990  0.53940  0.40316  Biso   1.000  F
  F181     1.0000 0.72680  0.60470  0.44411  Biso   1.000  F
  F182     1.0000 0.63550  0.56480  0.42129  Biso   1.000  F
  F183     1.0000 0.55710  0.40820  0.54087  Biso   1.000  F
  F184     1.0000 0.51070  0.33060  0.50888  Biso   1.000  F
  F185     1.0000 0.59670  0.34740  0.53175  Biso   1.000  F
  N43      1.0000 0.21592  0.55435  0.27921  Biso   1.000  N
  N44      1.0000 0.23911  0.60176  0.30180  Biso   1.000  N
  N45      1.0000 0.76290  0.38880  0.37013  Biso   1.000  N
  N46      1.0000 0.79028  0.43730  0.39264  Biso   1.000  N
  N47      1.0000 0.67680  0.45141  0.45105  Biso   1.000  N
  N48      1.0000 0.64680  0.40400  0.47446  Biso   1.000  N
  C169     1.0000 0.15290  0.51720  0.28378  Biso   1.000  C
  C170     1.0000 0.13080  0.53940  0.30924  Biso   1.000  C
  C171     1.0000 0.18850  0.59430  0.31953  Biso   1.000  C
  C172     1.0000 0.19880  0.63950  0.34681  Biso   1.000  C
  C173     1.0000 0.11350  0.45750  0.26251  Biso   1.000  C
  C174     1.0000 0.06370  0.51400  0.32214  Biso   1.000  C
  C175     1.0000 0.03480  0.55530  0.32437  Biso   1.000  C
  H43      1.0000 0.05787  0.59817  0.31697  Biso   1.000  H
  C176     1.0000 0.97520  0.53240  0.33698  Biso   1.000  C
  H44      1.0000 0.95788  0.56003  0.33860  Biso   1.000  H
  C177     1.0000 0.93830  0.46810  0.34773  Biso   1.000  C
  C178     1.0000 0.96150  0.42850  0.34508  Biso   1.000  C
  H45      1.0000 0.93539  0.38516  0.35134  Biso   1.000  H
  C179     1.0000 0.02540  0.44920  0.33293  Biso   1.000  C
  H46      1.0000 0.04136  0.42035  0.33216  Biso   1.000  H
  C180     1.0000 0.87150  0.44710  0.36151  Biso   1.000  C
  C181     1.0000 0.85440  0.47100  0.38767  Biso   1.000  C
  C182     1.0000 0.81090  0.39380  0.35114  Biso   1.000  C
  C183     1.0000 0.79630  0.34820  0.32470  Biso   1.000  C
  C184     1.0000 0.89310  0.52460  0.40820  Biso   1.000  C
  C185     1.0000 0.65570  0.49490  0.45400  Biso   1.000  C
  C186     1.0000 0.61020  0.47620  0.47907  Biso   1.000  C
  C187     1.0000 0.60800  0.42070  0.49049  Biso   1.000  C
  C188     1.0000 0.56960  0.37750  0.51876  Biso   1.000  C
  C189     1.0000 0.67860  0.54900  0.43048  Biso   1.000  C
  C190     1.0000 0.57670  0.51250  0.49013  Biso   1.000  C
  C191     1.0000 0.60870  0.57840  0.49499  Biso   1.000  C
  H47      1.0000 0.65332  0.60248  0.49106  Biso   1.000  H
  C192     1.0000 0.50750  0.47540  0.49454  Biso   1.000  C
  H48      1.0000 0.48449  0.43086  0.49019  Biso   1.000  H
  F186     1.0000 0.15300  0.61900  0.36730  Biso   1.000  F
  F187     1.0000 0.26240  0.67470  0.35980  Biso   1.000  F
  F188     1.0000 0.15000  0.45900  0.24000  Biso   1.000  F
  F189     1.0000 0.84020  0.34300  0.31460  Biso   1.000  F
  F190     1.0000 0.74300  0.28700  0.33080  Biso   1.000  F
  F191     1.0000 0.87880  0.51880  0.43740  Biso   1.000  F
  F192     1.0000 0.16600  0.60100  0.37330  Biso   1.000  F
  Cu9      1.0000 0.71023  0.26718  0.42130  Biso   1.000  Cu
  F193     1.0000 0.40200  0.74800  0.35970  Biso   1.000  F
  F194     1.0000 0.49790  0.80750  0.33664  Biso   1.000  F
  F195     1.0000 0.39620  0.94440  0.25499  Biso   1.000  F
  F196     1.0000 0.32870  0.86480  0.23130  Biso   1.000  F
  F197     1.0000 0.30570  0.90130  0.27577  Biso   1.000  F
  F198     1.0000 0.49770  0.20000  0.33290  Biso   1.000  F
  F199     1.0000 0.58890  0.26140  0.31120  Biso   1.000  F
  F200     1.0000 0.54720  0.16440  0.29775  Biso   1.000  F
  F201     1.0000 0.66370  0.13430  0.43510  Biso   1.000  F
  F202     1.0000 0.57600  0.04690  0.41534  Biso   1.000  F
  F203     1.0000 0.67090  0.08810  0.39567  Biso   1.000  F
  F204     1.0000 0.83950  0.30010  0.40316  Biso   1.000  F
  F205     1.0000 0.87790  0.27320  0.44411  Biso   1.000  F
  F206     1.0000 0.92930  0.36450  0.42129  Biso   1.000  F
  F207     1.0000 0.85110  0.44290  0.54087  Biso   1.000  F
  F208     1.0000 0.81990  0.48930  0.50888  Biso   1.000  F
  F209     1.0000 0.75070  0.40330  0.53175  Biso   1.000  F
  N49      1.0000 0.33843  0.78408  0.27921  Biso   1.000  N
  N50      1.0000 0.36265  0.76089  0.30180  Biso   1.000  N
  N51      1.0000 0.62590  0.23710  0.37013  Biso   1.000  N
  N52      1.0000 0.64702  0.20972  0.39264  Biso   1.000  N
  N53      1.0000 0.77461  0.32320  0.45105  Biso   1.000  N
  N54      1.0000 0.75720  0.35320  0.47446  Biso   1.000  N
  C193     1.0000 0.36430  0.84710  0.28378  Biso   1.000  C
  C194     1.0000 0.40860  0.86920  0.30924  Biso   1.000  C
  C195     1.0000 0.40580  0.81150  0.31953  Biso   1.000  C
  C196     1.0000 0.44070  0.80120  0.34681  Biso   1.000  C
  C197     1.0000 0.34400  0.88650  0.26251  Biso   1.000  C
  C198     1.0000 0.45030  0.93630  0.32214  Biso   1.000  C
  C199     1.0000 0.52050  0.96520  0.32437  Biso   1.000  C
  H49      1.0000 0.54030  0.94213  0.31697  Biso   1.000  H
  C200     1.0000 0.55720  0.02480  0.33698  Biso   1.000  C
  H50      1.0000 0.60215  0.04212  0.33860  Biso   1.000  H
  C201     1.0000 0.52980  0.06170  0.34773  Biso   1.000  C
  C202     1.0000 0.46700  0.03850  0.34508  Biso   1.000  C
  H51      1.0000 0.44977  0.06461  0.35134  Biso   1.000  H
  C203     1.0000 0.42380  0.97460  0.33293  Biso   1.000  C
  H52      1.0000 0.37899  0.95864  0.33216  Biso   1.000  H
  C204     1.0000 0.57560  0.12850  0.36151  Biso   1.000  C
  C205     1.0000 0.61660  0.14560  0.38767  Biso   1.000  C
  C206     1.0000 0.58290  0.18910  0.35114  Biso   1.000  C
  C207     1.0000 0.55190  0.20370  0.32470  Biso   1.000  C
  C208     1.0000 0.63150  0.10690  0.40820  Biso   1.000  C
  C209     1.0000 0.83920  0.34430  0.45400  Biso   1.000  C
  C210     1.0000 0.86600  0.38980  0.47907  Biso   1.000  C
  C211     1.0000 0.81270  0.39200  0.49049  Biso   1.000  C
  C212     1.0000 0.80790  0.43040  0.51876  Biso   1.000  C
  C213     1.0000 0.87040  0.32140  0.43048  Biso   1.000  C
  C214     1.0000 0.93580  0.42330  0.49013  Biso   1.000  C
  C215     1.0000 0.96970  0.39130  0.49499  Biso   1.000  C
  H53      1.0000 0.94916  0.34668  0.49106  Biso   1.000  H
  C216     1.0000 0.96790  0.49250  0.49454  Biso   1.000  C
  H54      1.0000 0.94637  0.51551  0.49019  Biso   1.000  H
  F210     1.0000 0.46600  0.84700  0.36730  Biso   1.000  F
  F211     1.0000 0.41230  0.73760  0.35980  Biso   1.000  F
  F212     1.0000 0.30900  0.85000  0.24000  Biso   1.000  F
  F213     1.0000 0.50280  0.15980  0.31460  Biso   1.000  F
  F214     1.0000 0.54400  0.25700  0.33080  Biso   1.000  F
  F215     1.0000 0.64000  0.12120  0.43740  Biso   1.000  F
  F216     1.0000 0.43500  0.83400  0.37330  Biso   1.000  F
  Cu10     1.0000 0.44305  0.71023  0.92130  Biso   1.000  Cu
  F217     1.0000 0.65400  0.40200  0.85970  Biso   1.000  F
  F218     1.0000 0.69040  0.49790  0.83664  Biso   1.000  F
  F219     1.0000 0.45180  0.39620  0.75499  Biso   1.000  F
  F220     1.0000 0.46390  0.32870  0.73130  Biso   1.000  F
  F221     1.0000 0.40440  0.30570  0.77577  Biso   1.000  F
  F222     1.0000 0.29770  0.49770  0.83290  Biso   1.000  F
  F223     1.0000 0.32750  0.58890  0.81120  Biso   1.000  F
  F224     1.0000 0.38280  0.54720  0.79775  Biso   1.000  F
  F225     1.0000 0.52940  0.66370  0.93510  Biso   1.000  F
  F226     1.0000 0.52910  0.57600  0.91534  Biso   1.000  F
  F227     1.0000 0.58280  0.67090  0.89567  Biso   1.000  F
  F228     1.0000 0.53940  0.83950  0.90316  Biso   1.000  F
  F229     1.0000 0.60470  0.87790  0.94411  Biso   1.000  F
  F230     1.0000 0.56480  0.92930  0.92129  Biso   1.000  F
  F231     1.0000 0.40820  0.85110  0.04087  Biso   1.000  F
  F232     1.0000 0.33060  0.81990  0.00888  Biso   1.000  F
  F233     1.0000 0.34740  0.75070  0.03175  Biso   1.000  F
  N55      1.0000 0.55435  0.33843  0.77921  Biso   1.000  N
  N56      1.0000 0.60176  0.36265  0.80180  Biso   1.000  N
  N57      1.0000 0.38880  0.62590  0.87013  Biso   1.000  N
  N58      1.0000 0.43730  0.64702  0.89264  Biso   1.000  N
  N59      1.0000 0.45141  0.77461  0.95105  Biso   1.000  N
  N60      1.0000 0.40400  0.75720  0.97446  Biso   1.000  N
  C217     1.0000 0.51720  0.36430  0.78378  Biso   1.000  C
  C218     1.0000 0.53940  0.40860  0.80924  Biso   1.000  C
  C219     1.0000 0.59430  0.40580  0.81953  Biso   1.000  C
  C220     1.0000 0.63950  0.44070  0.84681  Biso   1.000  C
  C221     1.0000 0.45750  0.34400  0.76251  Biso   1.000  C
  C222     1.0000 0.51400  0.45030  0.82214  Biso   1.000  C
  C223     1.0000 0.55530  0.52050  0.82437  Biso   1.000  C
  H55      1.0000 0.59817  0.54030  0.81697  Biso   1.000  H
  C224     1.0000 0.53240  0.55720  0.83698  Biso   1.000  C
  H56      1.0000 0.56003  0.60215  0.83860  Biso   1.000  H
  C225     1.0000 0.46810  0.52980  0.84773  Biso   1.000  C
  C226     1.0000 0.42850  0.46700  0.84508  Biso   1.000  C
  H57      1.0000 0.38516  0.44977  0.85134  Biso   1.000  H
  C227     1.0000 0.44920  0.42380  0.83293  Biso   1.000  C
  H58      1.0000 0.42035  0.37899  0.83216  Biso   1.000  H
  C228     1.0000 0.44710  0.57560  0.86151  Biso   1.000  C
  C229     1.0000 0.47100  0.61660  0.88767  Biso   1.000  C
  C230     1.0000 0.39380  0.58290  0.85114  Biso   1.000  C
  C231     1.0000 0.34820  0.55190  0.82470  Biso   1.000  C
  C232     1.0000 0.52460  0.63150  0.90820  Biso   1.000  C
  C233     1.0000 0.49490  0.83920  0.95400  Biso   1.000  C
  C234     1.0000 0.47620  0.86600  0.97907  Biso   1.000  C
  C235     1.0000 0.42070  0.81270  0.99049  Biso   1.000  C
  C236     1.0000 0.37750  0.80790  0.01876  Biso   1.000  C
  C237     1.0000 0.54900  0.87040  0.93048  Biso   1.000  C
  C238     1.0000 0.51250  0.93580  0.99013  Biso   1.000  C
  C239     1.0000 0.57840  0.96970  0.99499  Biso   1.000  C
  H59      1.0000 0.60248  0.94916  0.99106  Biso   1.000  H
  C240     1.0000 0.47540  0.96790  0.99454  Biso   1.000  C
  H60      1.0000 0.43086  0.94637  0.99019  Biso   1.000  H
  F234     1.0000 0.61900  0.46600  0.86730  Biso   1.000  F
  F235     1.0000 0.67470  0.41230  0.85980  Biso   1.000  F
  F236     1.0000 0.45900  0.30900  0.74000  Biso   1.000  F
  F237     1.0000 0.34300  0.50280  0.81460  Biso   1.000  F
  F238     1.0000 0.28700  0.54400  0.83080  Biso   1.000  F
  F239     1.0000 0.51880  0.64000  0.93740  Biso   1.000  F
  F240     1.0000 0.60100  0.43500  0.87330  Biso   1.000  F
  Cu11     1.0000 0.26718  0.55695  0.92130  Biso   1.000  Cu
  F241     1.0000 0.74800  0.34600  0.85970  Biso   1.000  F
  F242     1.0000 0.80750  0.30960  0.83664  Biso   1.000  F
  F243     1.0000 0.94440  0.54820  0.75499  Biso   1.000  F
  F244     1.0000 0.86480  0.53610  0.73130  Biso   1.000  F
  F245     1.0000 0.90130  0.59560  0.77577  Biso   1.000  F
  F246     1.0000 0.20000  0.70230  0.83290  Biso   1.000  F
  F247     1.0000 0.26140  0.67250  0.81120  Biso   1.000  F
  F248     1.0000 0.16440  0.61720  0.79775  Biso   1.000  F
  F249     1.0000 0.13430  0.47060  0.93510  Biso   1.000  F
  F250     1.0000 0.04690  0.47090  0.91534  Biso   1.000  F
  F251     1.0000 0.08810  0.41720  0.89567  Biso   1.000  F
  F252     1.0000 0.30010  0.46060  0.90316  Biso   1.000  F
  F253     1.0000 0.27320  0.39530  0.94411  Biso   1.000  F
  F254     1.0000 0.36450  0.43520  0.92129  Biso   1.000  F
  F255     1.0000 0.44290  0.59180  0.04087  Biso   1.000  F
  F256     1.0000 0.48930  0.66940  0.00888  Biso   1.000  F
  F257     1.0000 0.40330  0.65260  0.03175  Biso   1.000  F
  N61      1.0000 0.78408  0.44565  0.77921  Biso   1.000  N
  N62      1.0000 0.76089  0.39824  0.80180  Biso   1.000  N
  N63      1.0000 0.23710  0.61120  0.87013  Biso   1.000  N
  N64      1.0000 0.20972  0.56270  0.89264  Biso   1.000  N
  N65      1.0000 0.32320  0.54859  0.95105  Biso   1.000  N
  N66      1.0000 0.35320  0.59600  0.97446  Biso   1.000  N
  C241     1.0000 0.84710  0.48280  0.78378  Biso   1.000  C
  C242     1.0000 0.86920  0.46060  0.80924  Biso   1.000  C
  C243     1.0000 0.81150  0.40570  0.81953  Biso   1.000  C
  C244     1.0000 0.80120  0.36050  0.84681  Biso   1.000  C
  C245     1.0000 0.88650  0.54250  0.76251  Biso   1.000  C
  C246     1.0000 0.93630  0.48600  0.82214  Biso   1.000  C
  C247     1.0000 0.96520  0.44470  0.82437  Biso   1.000  C
  H61      1.0000 0.94213  0.40183  0.81697  Biso   1.000  H
  C248     1.0000 0.02480  0.46760  0.83698  Biso   1.000  C
  H62      1.0000 0.04212  0.43997  0.83860  Biso   1.000  H
  C249     1.0000 0.06170  0.53190  0.84773  Biso   1.000  C
  C250     1.0000 0.03850  0.57150  0.84508  Biso   1.000  C
  H63      1.0000 0.06461  0.61484  0.85134  Biso   1.000  H
  C251     1.0000 0.97460  0.55080  0.83293  Biso   1.000  C
  H64      1.0000 0.95864  0.57965  0.83216  Biso   1.000  H
  C252     1.0000 0.12850  0.55290  0.86151  Biso   1.000  C
  C253     1.0000 0.14560  0.52900  0.88767  Biso   1.000  C
  C254     1.0000 0.18910  0.60620  0.85114  Biso   1.000  C
  C255     1.0000 0.20370  0.65180  0.82470  Biso   1.000  C
  C256     1.0000 0.10690  0.47540  0.90820  Biso   1.000  C
  C257     1.0000 0.34430  0.50510  0.95400  Biso   1.000  C
  C258     1.0000 0.38980  0.52380  0.97907  Biso   1.000  C
  C259     1.0000 0.39200  0.57930  0.99049  Biso   1.000  C
  C260     1.0000 0.43040  0.62250  0.01876  Biso   1.000  C
  C261     1.0000 0.32140  0.45100  0.93048  Biso   1.000  C
  C262     1.0000 0.42330  0.48750  0.99013  Biso   1.000  C
  C263     1.0000 0.39130  0.42160  0.99499  Biso   1.000  C
  H65      1.0000 0.34668  0.39752  0.99106  Biso   1.000  H
  C264     1.0000 0.49250  0.52460  0.99454  Biso   1.000  C
  H66      1.0000 0.51551  0.56914  0.99019  Biso   1.000  H
  F258     1.0000 0.84700  0.38100  0.86730  Biso   1.000  F
  F259     1.0000 0.73760  0.32530  0.85980  Biso   1.000  F
  F260     1.0000 0.85000  0.54100  0.74000  Biso   1.000  F
  F261     1.0000 0.15980  0.65700  0.81460  Biso   1.000  F
  F262     1.0000 0.25700  0.71300  0.83080  Biso   1.000  F
  F263     1.0000 0.12120  0.48120  0.93740  Biso   1.000  F
  F264     1.0000 0.83400  0.39900  0.87330  Biso   1.000  F
  Cu12     1.0000 0.28977  0.73282  0.92130  Biso   1.000  Cu
  F265     1.0000 0.59800  0.25200  0.85970  Biso   1.000  F
  F266     1.0000 0.50210  0.19250  0.83664  Biso   1.000  F
  F267     1.0000 0.60380  0.05560  0.75499  Biso   1.000  F
  F268     1.0000 0.67130  0.13520  0.73130  Biso   1.000  F
  F269     1.0000 0.69430  0.09870  0.77577  Biso   1.000  F
  F270     1.0000 0.50230  0.80000  0.83290  Biso   1.000  F
  F271     1.0000 0.41110  0.73860  0.81120  Biso   1.000  F
  F272     1.0000 0.45280  0.83560  0.79775  Biso   1.000  F
  F273     1.0000 0.33630  0.86570  0.93510  Biso   1.000  F
  F274     1.0000 0.42400  0.95310  0.91534  Biso   1.000  F
  F275     1.0000 0.32910  0.91190  0.89567  Biso   1.000  F
  F276     1.0000 0.16050  0.69990  0.90316  Biso   1.000  F
  F277     1.0000 0.12210  0.72680  0.94411  Biso   1.000  F
  F278     1.0000 0.07070  0.63550  0.92129  Biso   1.000  F
  F279     1.0000 0.14890  0.55710  0.04087  Biso   1.000  F
  F280     1.0000 0.18010  0.51070  0.00888  Biso   1.000  F
  F281     1.0000 0.24930  0.59670  0.03175  Biso   1.000  F
  N67      1.0000 0.66157  0.21592  0.77921  Biso   1.000  N
  N68      1.0000 0.63735  0.23911  0.80180  Biso   1.000  N
  N69      1.0000 0.37410  0.76290  0.87013  Biso   1.000  N
  N70      1.0000 0.35298  0.79028  0.89264  Biso   1.000  N
  N71      1.0000 0.22539  0.67680  0.95105  Biso   1.000  N
  N72      1.0000 0.24280  0.64680  0.97446  Biso   1.000  N
  C265     1.0000 0.63570  0.15290  0.78378  Biso   1.000  C
  C266     1.0000 0.59140  0.13080  0.80924  Biso   1.000  C
  C267     1.0000 0.59420  0.18850  0.81953  Biso   1.000  C
  C268     1.0000 0.55930  0.19880  0.84681  Biso   1.000  C
  C269     1.0000 0.65600  0.11350  0.76251  Biso   1.000  C
  C270     1.0000 0.54970  0.06370  0.82214  Biso   1.000  C
  C271     1.0000 0.47950  0.03480  0.82437  Biso   1.000  C
  H67      1.0000 0.45970  0.05787  0.81697  Biso   1.000  H
  C272     1.0000 0.44280  0.97520  0.83698  Biso   1.000  C
  H68      1.0000 0.39785  0.95788  0.83860  Biso   1.000  H
  C273     1.0000 0.47020  0.93830  0.84773  Biso   1.000  C
  C274     1.0000 0.53300  0.96150  0.84508  Biso   1.000  C
  H69      1.0000 0.55023  0.93539  0.85134  Biso   1.000  H
  C275     1.0000 0.57620  0.02540  0.83293  Biso   1.000  C
  H70      1.0000 0.62101  0.04136  0.83216  Biso   1.000  H
  C276     1.0000 0.42440  0.87150  0.86151  Biso   1.000  C
  C277     1.0000 0.38340  0.85440  0.88767  Biso   1.000  C
  C278     1.0000 0.41710  0.81090  0.85114  Biso   1.000  C
  C279     1.0000 0.44810  0.79630  0.82470  Biso   1.000  C
  C280     1.0000 0.36850  0.89310  0.90820  Biso   1.000  C
  C281     1.0000 0.16080  0.65570  0.95400  Biso   1.000  C
  C282     1.0000 0.13400  0.61020  0.97907  Biso   1.000  C
  C283     1.0000 0.18730  0.60800  0.99049  Biso   1.000  C
  C284     1.0000 0.19210  0.56960  0.01876  Biso   1.000  C
  C285     1.0000 0.12960  0.67860  0.93048  Biso   1.000  C
  C286     1.0000 0.06420  0.57670  0.99013  Biso   1.000  C
  C287     1.0000 0.03030  0.60870  0.99499  Biso   1.000  C
  H71      1.0000 0.05084  0.65332  0.99106  Biso   1.000  H
  C288     1.0000 0.03210  0.50750  0.99454  Biso   1.000  C
  H72      1.0000 0.05363  0.48449  0.99019  Biso   1.000  H
  F282     1.0000 0.53400  0.15300  0.86730  Biso   1.000  F
  F283     1.0000 0.58770  0.26240  0.85980  Biso   1.000  F
  F284     1.0000 0.69100  0.15000  0.74000  Biso   1.000  F
  F285     1.0000 0.49720  0.84020  0.81460  Biso   1.000  F
  F286     1.0000 0.45600  0.74300  0.83080  Biso   1.000  F
  F287     1.0000 0.36000  0.87880  0.93740  Biso   1.000  F
  F288     1.0000 0.56500  0.16600  0.87330  Biso   1.000  F
  Cu13     1.0000 0.72274  0.44548  0.75000  Biso   1.000  Cu
  Cu14     1.0000 0.55452  0.27726  0.75000  Biso   1.000  Cu
  Cu15     1.0000 0.72274  0.27726  0.75000  Biso   1.000  Cu
  Cu16     1.0000 0.27726  0.55452  0.25000  Biso   1.000  Cu
  Cu17     1.0000 0.44548  0.72274  0.25000  Biso   1.000  Cu
  Cu18     1.0000 0.27726  0.72274  0.25000  Biso   1.000  Cu
  Cu19     1.0000 0.66667  0.33333  0.69771  Biso   1.000  Cu
  Cu20     1.0000 0.33333  0.66667  0.19771  Biso   1.000  Cu
  Cu21     1.0000 0.33333  0.66667  0.30229  Biso   1.000  Cu
  Cu22     1.0000 0.66667  0.33333  0.80229  Biso   1.000  Cu
  Cu23     1.0000 0.33333  0.66667  0.63151  Biso   1.000  Cu
  Cu24     1.0000 0.33333  0.66667  0.52554  Biso   1.000  Cu
  Cu25     1.0000 0.66667  0.33333  0.13151  Biso   1.000  Cu
  Cu26     1.0000 0.66667  0.33333  0.02554  Biso   1.000  Cu
  Cu27     1.0000 0.66667  0.33333  0.36849  Biso   1.000  Cu
  Cu28     1.0000 0.66667  0.33333  0.47446  Biso   1.000  Cu
  Cu29     1.0000 0.33333  0.66667  0.86849  Biso   1.000  Cu
  Cu30     1.0000 0.33333  0.66667  0.97446  Biso   1.000  Cu
