data_image0
_cell_length_a       18.7403
_cell_length_b       18.7403
_cell_length_c       41.2715
_cell_angle_alpha    90
_cell_angle_beta     90
_cell_angle_gamma    120

_symmetry_space_group_name_H-M    "P 1"
_symmetry_int_tables_number       1

loop_
  _symmetry_equiv_pos_as_xyz
  'x, y, z'

loop_
  _atom_site_label
  _atom_site_occupancy
  _atom_site_fract_x
  _atom_site_fract_y
  _atom_site_fract_z
  _atom_site_thermal_displace_type
  _atom_site_B_iso_or_equiv
  _atom_site_type_symbol
  O1       1.0000 0.36665  0.11000  0.62692  Biso   1.000  O
  C1       1.0000 0.42790  0.12050  0.64389  Biso   1.000  C
  O2       1.0000 0.44480  0.14969  0.67172  Biso   1.000  O
  C2       1.0000 0.48660  0.10550  0.62730  Biso   1.000  C
  C3       1.0000 0.47430  0.07890  0.59500  Biso   1.000  C
  H1       1.0000 0.42680  0.07060  0.58350  Biso   1.000  H
  C4       1.0000 0.56530  0.02200  0.52710  Biso   1.000  C
  N1       1.0000 0.45070  0.02470  0.53050  Biso   1.000  N
  C5       1.0000 0.53560  0.97370  0.46740  Biso   1.000  C
  C6       1.0000 0.48280  0.09120  0.62860  Biso   1.000  C
  C7       1.0000 0.46220  0.04900  0.60060  Biso   1.000  C
  H2       1.0000 0.41200  0.03670  0.59030  Biso   1.000  H
  H3       1.0000 0.61670  0.02540  0.53140  Biso   1.000  H
  H4       1.0000 0.59520  0.99600  0.46340  Biso   1.000  H
  H5       1.0000 0.50710  0.91290  0.46590  Biso   1.000  H
  O3       1.0000 0.03332  0.44333  0.96025  Biso   1.000  O
  C8       1.0000 0.09457  0.45383  0.97722  Biso   1.000  C
  O4       1.0000 0.11147  0.48302  0.00505  Biso   1.000  O
  C9       1.0000 0.15327  0.43883  0.96063  Biso   1.000  C
  C10      1.0000 0.14097  0.41223  0.92833  Biso   1.000  C
  H6       1.0000 0.09347  0.40393  0.91683  Biso   1.000  H
  C11      1.0000 0.23197  0.35533  0.86043  Biso   1.000  C
  N2       1.0000 0.11737  0.35803  0.86383  Biso   1.000  N
  C12      1.0000 0.20227  0.30703  0.80073  Biso   1.000  C
  C13      1.0000 0.14947  0.42453  0.96193  Biso   1.000  C
  C14      1.0000 0.12887  0.38233  0.93393  Biso   1.000  C
  H7       1.0000 0.07867  0.37003  0.92363  Biso   1.000  H
  H8       1.0000 0.28337  0.35873  0.86473  Biso   1.000  H
  H9       1.0000 0.26187  0.32933  0.79673  Biso   1.000  H
  H10      1.0000 0.17377  0.24623  0.79923  Biso   1.000  H
  O5       1.0000 0.69998  0.77667  0.29359  Biso   1.000  O
  C15      1.0000 0.76123  0.78717  0.31056  Biso   1.000  C
  O6       1.0000 0.77813  0.81636  0.33839  Biso   1.000  O
  C16      1.0000 0.81993  0.77217  0.29397  Biso   1.000  C
  C17      1.0000 0.80763  0.74557  0.26167  Biso   1.000  C
  H11      1.0000 0.76013  0.73727  0.25017  Biso   1.000  H
  C18      1.0000 0.89863  0.68867  0.19377  Biso   1.000  C
  N3       1.0000 0.78403  0.69137  0.19717  Biso   1.000  N
  C19      1.0000 0.86893  0.64037  0.13407  Biso   1.000  C
  C20      1.0000 0.81613  0.75787  0.29527  Biso   1.000  C
  C21      1.0000 0.79553  0.71567  0.26727  Biso   1.000  C
  H12      1.0000 0.74533  0.70337  0.25697  Biso   1.000  H
  H13      1.0000 0.95003  0.69207  0.19807  Biso   1.000  H
  H14      1.0000 0.92853  0.66267  0.13007  Biso   1.000  H
  H15      1.0000 0.84043  0.57957  0.13257  Biso   1.000  H
  O7       1.0000 0.89000  0.25665  0.62692  Biso   1.000  O
  C22      1.0000 0.87950  0.30740  0.64389  Biso   1.000  C
  O8       1.0000 0.85031  0.29511  0.67172  Biso   1.000  O
  C23      1.0000 0.89450  0.38110  0.62730  Biso   1.000  C
  C24      1.0000 0.92110  0.39540  0.59500  Biso   1.000  C
  H16      1.0000 0.92940  0.35620  0.58350  Biso   1.000  H
  C25      1.0000 0.97800  0.54330  0.52710  Biso   1.000  C
  N4       1.0000 0.97530  0.42600  0.53050  Biso   1.000  N
  C26      1.0000 0.02630  0.56190  0.46740  Biso   1.000  C
  C27      1.0000 0.90880  0.39160  0.62860  Biso   1.000  C
  C28      1.0000 0.95100  0.41320  0.60060  Biso   1.000  C
  H17      1.0000 0.96330  0.37530  0.59030  Biso   1.000  H
  H18      1.0000 0.97460  0.59130  0.53140  Biso   1.000  H
  H19      1.0000 0.00400  0.59920  0.46340  Biso   1.000  H
  H20      1.0000 0.08710  0.59420  0.46590  Biso   1.000  H
  O9       1.0000 0.55667  0.58998  0.96025  Biso   1.000  O
  C29      1.0000 0.54617  0.64073  0.97722  Biso   1.000  C
  O10      1.0000 0.51698  0.62844  0.00505  Biso   1.000  O
  C30      1.0000 0.56117  0.71443  0.96063  Biso   1.000  C
  C31      1.0000 0.58777  0.72873  0.92833  Biso   1.000  C
  H21      1.0000 0.59607  0.68953  0.91683  Biso   1.000  H
  C32      1.0000 0.64467  0.87663  0.86043  Biso   1.000  C
  N5       1.0000 0.64197  0.75933  0.86383  Biso   1.000  N
  C33      1.0000 0.69297  0.89523  0.80073  Biso   1.000  C
  C34      1.0000 0.57547  0.72493  0.96193  Biso   1.000  C
  C35      1.0000 0.61767  0.74653  0.93393  Biso   1.000  C
  H22      1.0000 0.62997  0.70863  0.92363  Biso   1.000  H
  H23      1.0000 0.64127  0.92463  0.86473  Biso   1.000  H
  H24      1.0000 0.67067  0.93253  0.79673  Biso   1.000  H
  H25      1.0000 0.75377  0.92753  0.79923  Biso   1.000  H
  O11      1.0000 0.22333  0.92332  0.29359  Biso   1.000  O
  C36      1.0000 0.21283  0.97407  0.31056  Biso   1.000  C
  O12      1.0000 0.18364  0.96178  0.33839  Biso   1.000  O
  C37      1.0000 0.22783  0.04777  0.29397  Biso   1.000  C
  C38      1.0000 0.25443  0.06207  0.26167  Biso   1.000  C
  H26      1.0000 0.26273  0.02287  0.25017  Biso   1.000  H
  C39      1.0000 0.31133  0.20997  0.19377  Biso   1.000  C
  N6       1.0000 0.30863  0.09267  0.19717  Biso   1.000  N
  C40      1.0000 0.35963  0.22857  0.13407  Biso   1.000  C
  C41      1.0000 0.24213  0.05827  0.29527  Biso   1.000  C
  C42      1.0000 0.28433  0.07987  0.26727  Biso   1.000  C
  H27      1.0000 0.29663  0.04197  0.25697  Biso   1.000  H
  H28      1.0000 0.30793  0.25797  0.19807  Biso   1.000  H
  H29      1.0000 0.33733  0.26587  0.13007  Biso   1.000  H
  H30      1.0000 0.42043  0.26087  0.13257  Biso   1.000  H
  O13      1.0000 0.74335  0.63335  0.62692  Biso   1.000  O
  C43      1.0000 0.69260  0.57210  0.64389  Biso   1.000  C
  O14      1.0000 0.70489  0.55520  0.67172  Biso   1.000  O
  C44      1.0000 0.61890  0.51340  0.62730  Biso   1.000  C
  C45      1.0000 0.60460  0.52570  0.59500  Biso   1.000  C
  H31      1.0000 0.64380  0.57320  0.58350  Biso   1.000  H
  C46      1.0000 0.45670  0.43470  0.52710  Biso   1.000  C
  N7       1.0000 0.57400  0.54930  0.53050  Biso   1.000  N
  C47      1.0000 0.43810  0.46440  0.46740  Biso   1.000  C
  C48      1.0000 0.60840  0.51720  0.62860  Biso   1.000  C
  C49      1.0000 0.58680  0.53780  0.60060  Biso   1.000  C
  H32      1.0000 0.62470  0.58800  0.59030  Biso   1.000  H
  H33      1.0000 0.40870  0.38330  0.53140  Biso   1.000  H
  H34      1.0000 0.40080  0.40480  0.46340  Biso   1.000  H
  H35      1.0000 0.40580  0.49290  0.46590  Biso   1.000  H
  O15      1.0000 0.41002  0.96668  0.96025  Biso   1.000  O
  C50      1.0000 0.35927  0.90543  0.97722  Biso   1.000  C
  O16      1.0000 0.37156  0.88853  0.00505  Biso   1.000  O
  C51      1.0000 0.28557  0.84673  0.96063  Biso   1.000  C
  C52      1.0000 0.27127  0.85903  0.92833  Biso   1.000  C
  H36      1.0000 0.31047  0.90653  0.91683  Biso   1.000  H
  C53      1.0000 0.12337  0.76803  0.86043  Biso   1.000  C
  N8       1.0000 0.24067  0.88263  0.86383  Biso   1.000  N
  C54      1.0000 0.10477  0.79773  0.80073  Biso   1.000  C
  C55      1.0000 0.27507  0.85053  0.96193  Biso   1.000  C
  C56      1.0000 0.25347  0.87113  0.93393  Biso   1.000  C
  H37      1.0000 0.29137  0.92133  0.92363  Biso   1.000  H
  H38      1.0000 0.07537  0.71663  0.86473  Biso   1.000  H
  H39      1.0000 0.06747  0.73813  0.79673  Biso   1.000  H
  H40      1.0000 0.07247  0.82623  0.79923  Biso   1.000  H
  O17      1.0000 0.07668  0.30002  0.29359  Biso   1.000  O
  C57      1.0000 0.02593  0.23877  0.31056  Biso   1.000  C
  O18      1.0000 0.03822  0.22187  0.33839  Biso   1.000  O
  C58      1.0000 0.95223  0.18007  0.29397  Biso   1.000  C
  C59      1.0000 0.93793  0.19237  0.26167  Biso   1.000  C
  H41      1.0000 0.97713  0.23987  0.25017  Biso   1.000  H
  C60      1.0000 0.79003  0.10137  0.19377  Biso   1.000  C
  N9       1.0000 0.90733  0.21597  0.19717  Biso   1.000  N
  C61      1.0000 0.77143  0.13107  0.13407  Biso   1.000  C
  C62      1.0000 0.94173  0.18387  0.29527  Biso   1.000  C
  C63      1.0000 0.92013  0.20447  0.26727  Biso   1.000  C
  H42      1.0000 0.95803  0.25467  0.25697  Biso   1.000  H
  H43      1.0000 0.74203  0.04997  0.19807  Biso   1.000  H
  H44      1.0000 0.73413  0.07147  0.13007  Biso   1.000  H
  H45      1.0000 0.73913  0.15957  0.13257  Biso   1.000  H
  O19      1.0000 0.11000  0.36665  0.37308  Biso   1.000  O
  C64      1.0000 0.12050  0.42790  0.35611  Biso   1.000  C
  O20      1.0000 0.14969  0.44480  0.32828  Biso   1.000  O
  C65      1.0000 0.10550  0.48660  0.37270  Biso   1.000  C
  C66      1.0000 0.07890  0.47430  0.40500  Biso   1.000  C
  H46      1.0000 0.07060  0.42680  0.41650  Biso   1.000  H
  C67      1.0000 0.02200  0.56530  0.47290  Biso   1.000  C
  N10      1.0000 0.02470  0.45070  0.46950  Biso   1.000  N
  C68      1.0000 0.97370  0.53560  0.53260  Biso   1.000  C
  C69      1.0000 0.09120  0.48280  0.37140  Biso   1.000  C
  C70      1.0000 0.04900  0.46220  0.39940  Biso   1.000  C
  H47      1.0000 0.03670  0.41200  0.40970  Biso   1.000  H
  H48      1.0000 0.02540  0.61670  0.46860  Biso   1.000  H
  H49      1.0000 0.99600  0.59520  0.53660  Biso   1.000  H
  H50      1.0000 0.91290  0.50710  0.53410  Biso   1.000  H
  O21      1.0000 0.77667  0.69998  0.70641  Biso   1.000  O
  C71      1.0000 0.78717  0.76123  0.68944  Biso   1.000  C
  O22      1.0000 0.81636  0.77813  0.66161  Biso   1.000  O
  C72      1.0000 0.77217  0.81993  0.70603  Biso   1.000  C
  C73      1.0000 0.74557  0.80763  0.73833  Biso   1.000  C
  H51      1.0000 0.73727  0.76013  0.74983  Biso   1.000  H
  C74      1.0000 0.68867  0.89863  0.80623  Biso   1.000  C
  N11      1.0000 0.69137  0.78403  0.80283  Biso   1.000  N
  C75      1.0000 0.64037  0.86893  0.86593  Biso   1.000  C
  C76      1.0000 0.75787  0.81613  0.70473  Biso   1.000  C
  C77      1.0000 0.71567  0.79553  0.73273  Biso   1.000  C
  H52      1.0000 0.70337  0.74533  0.74303  Biso   1.000  H
  H53      1.0000 0.69207  0.95003  0.80193  Biso   1.000  H
  H54      1.0000 0.66267  0.92853  0.86993  Biso   1.000  H
  H55      1.0000 0.57957  0.84043  0.86743  Biso   1.000  H
  O23      1.0000 0.44333  0.03332  0.03975  Biso   1.000  O
  C78      1.0000 0.45383  0.09457  0.02278  Biso   1.000  C
  O24      1.0000 0.48302  0.11147  0.99495  Biso   1.000  O
  C79      1.0000 0.43883  0.15327  0.03937  Biso   1.000  C
  C80      1.0000 0.41223  0.14097  0.07167  Biso   1.000  C
  H56      1.0000 0.40393  0.09347  0.08317  Biso   1.000  H
  C81      1.0000 0.35533  0.23197  0.13957  Biso   1.000  C
  N12      1.0000 0.35803  0.11737  0.13617  Biso   1.000  N
  C82      1.0000 0.30703  0.20227  0.19927  Biso   1.000  C
  C83      1.0000 0.42453  0.14947  0.03807  Biso   1.000  C
  C84      1.0000 0.38233  0.12887  0.06607  Biso   1.000  C
  H57      1.0000 0.37003  0.07867  0.07637  Biso   1.000  H
  H58      1.0000 0.35873  0.28337  0.13527  Biso   1.000  H
  H59      1.0000 0.32933  0.26187  0.20327  Biso   1.000  H
  H60      1.0000 0.24623  0.17377  0.20077  Biso   1.000  H
  O25      1.0000 0.25665  0.89000  0.37308  Biso   1.000  O
  C85      1.0000 0.30740  0.87950  0.35611  Biso   1.000  C
  O26      1.0000 0.29511  0.85031  0.32828  Biso   1.000  O
  C86      1.0000 0.38110  0.89450  0.37270  Biso   1.000  C
  C87      1.0000 0.39540  0.92110  0.40500  Biso   1.000  C
  H61      1.0000 0.35620  0.92940  0.41650  Biso   1.000  H
  C88      1.0000 0.54330  0.97800  0.47290  Biso   1.000  C
  N13      1.0000 0.42600  0.97530  0.46950  Biso   1.000  N
  C89      1.0000 0.56190  0.02630  0.53260  Biso   1.000  C
  C90      1.0000 0.39160  0.90880  0.37140  Biso   1.000  C
  C91      1.0000 0.41320  0.95100  0.39940  Biso   1.000  C
  H62      1.0000 0.37530  0.96330  0.40970  Biso   1.000  H
  H63      1.0000 0.59130  0.97460  0.46860  Biso   1.000  H
  H64      1.0000 0.59920  0.00400  0.53660  Biso   1.000  H
  H65      1.0000 0.59420  0.08710  0.53410  Biso   1.000  H
  O27      1.0000 0.92332  0.22333  0.70641  Biso   1.000  O
  C92      1.0000 0.97407  0.21283  0.68944  Biso   1.000  C
  O28      1.0000 0.96178  0.18364  0.66161  Biso   1.000  O
  C93      1.0000 0.04777  0.22783  0.70603  Biso   1.000  C
  C94      1.0000 0.06207  0.25443  0.73833  Biso   1.000  C
  H66      1.0000 0.02287  0.26273  0.74983  Biso   1.000  H
  C95      1.0000 0.20997  0.31133  0.80623  Biso   1.000  C
  N14      1.0000 0.09267  0.30863  0.80283  Biso   1.000  N
  C96      1.0000 0.22857  0.35963  0.86593  Biso   1.000  C
  C97      1.0000 0.05827  0.24213  0.70473  Biso   1.000  C
  C98      1.0000 0.07987  0.28433  0.73273  Biso   1.000  C
  H67      1.0000 0.04197  0.29663  0.74303  Biso   1.000  H
  H68      1.0000 0.25797  0.30793  0.80193  Biso   1.000  H
  H69      1.0000 0.26587  0.33733  0.86993  Biso   1.000  H
  H70      1.0000 0.26087  0.42043  0.86743  Biso   1.000  H
  O29      1.0000 0.58998  0.55667  0.03975  Biso   1.000  O
  C99      1.0000 0.64073  0.54617  0.02278  Biso   1.000  C
  O30      1.0000 0.62844  0.51698  0.99495  Biso   1.000  O
  C100     1.0000 0.71443  0.56117  0.03937  Biso   1.000  C
  C101     1.0000 0.72873  0.58777  0.07167  Biso   1.000  C
  H71      1.0000 0.68953  0.59607  0.08317  Biso   1.000  H
  C102     1.0000 0.87663  0.64467  0.13957  Biso   1.000  C
  N15      1.0000 0.75933  0.64197  0.13617  Biso   1.000  N
  C103     1.0000 0.89523  0.69297  0.19927  Biso   1.000  C
  C104     1.0000 0.72493  0.57547  0.03807  Biso   1.000  C
  C105     1.0000 0.74653  0.61767  0.06607  Biso   1.000  C
  H72      1.0000 0.70863  0.62997  0.07637  Biso   1.000  H
  H73      1.0000 0.92463  0.64127  0.13527  Biso   1.000  H
  H74      1.0000 0.93253  0.67067  0.20327  Biso   1.000  H
  H75      1.0000 0.92753  0.75377  0.20077  Biso   1.000  H
  O31      1.0000 0.63335  0.74335  0.37308  Biso   1.000  O
  C106     1.0000 0.57210  0.69260  0.35611  Biso   1.000  C
  O32      1.0000 0.55520  0.70489  0.32828  Biso   1.000  O
  C107     1.0000 0.51340  0.61890  0.37270  Biso   1.000  C
  C108     1.0000 0.52570  0.60460  0.40500  Biso   1.000  C
  H76      1.0000 0.57320  0.64380  0.41650  Biso   1.000  H
  C109     1.0000 0.43470  0.45670  0.47290  Biso   1.000  C
  N16      1.0000 0.54930  0.57400  0.46950  Biso   1.000  N
  C110     1.0000 0.46440  0.43810  0.53260  Biso   1.000  C
  C111     1.0000 0.51720  0.60840  0.37140  Biso   1.000  C
  C112     1.0000 0.53780  0.58680  0.39940  Biso   1.000  C
  H77      1.0000 0.58800  0.62470  0.40970  Biso   1.000  H
  H78      1.0000 0.38330  0.40870  0.46860  Biso   1.000  H
  H79      1.0000 0.40480  0.40080  0.53660  Biso   1.000  H
  H80      1.0000 0.49290  0.40580  0.53410  Biso   1.000  H
  O33      1.0000 0.30002  0.07668  0.70641  Biso   1.000  O
  C113     1.0000 0.23877  0.02593  0.68944  Biso   1.000  C
  O34      1.0000 0.22187  0.03822  0.66161  Biso   1.000  O
  C114     1.0000 0.18007  0.95223  0.70603  Biso   1.000  C
  C115     1.0000 0.19237  0.93793  0.73833  Biso   1.000  C
  H81      1.0000 0.23987  0.97713  0.74983  Biso   1.000  H
  C116     1.0000 0.10137  0.79003  0.80623  Biso   1.000  C
  N17      1.0000 0.21597  0.90733  0.80283  Biso   1.000  N
  C117     1.0000 0.13107  0.77143  0.86593  Biso   1.000  C
  C118     1.0000 0.18387  0.94173  0.70473  Biso   1.000  C
  C119     1.0000 0.20447  0.92013  0.73273  Biso   1.000  C
  H82      1.0000 0.25467  0.95803  0.74303  Biso   1.000  H
  H83      1.0000 0.04997  0.74203  0.80193  Biso   1.000  H
  H84      1.0000 0.07147  0.73413  0.86993  Biso   1.000  H
  H85      1.0000 0.15957  0.73913  0.86743  Biso   1.000  H
  O35      1.0000 0.96668  0.41002  0.03975  Biso   1.000  O
  C120     1.0000 0.90543  0.35927  0.02278  Biso   1.000  C
  O36      1.0000 0.88853  0.37156  0.99495  Biso   1.000  O
  C121     1.0000 0.84673  0.28557  0.03937  Biso   1.000  C
  C122     1.0000 0.85903  0.27127  0.07167  Biso   1.000  C
  H86      1.0000 0.90653  0.31047  0.08317  Biso   1.000  H
  C123     1.0000 0.76803  0.12337  0.13957  Biso   1.000  C
  N18      1.0000 0.88263  0.24067  0.13617  Biso   1.000  N
  C124     1.0000 0.79773  0.10477  0.19927  Biso   1.000  C
  C125     1.0000 0.85053  0.27507  0.03807  Biso   1.000  C
  C126     1.0000 0.87113  0.25347  0.06607  Biso   1.000  C
  H87      1.0000 0.92133  0.29137  0.07637  Biso   1.000  H
  H88      1.0000 0.71663  0.07537  0.13527  Biso   1.000  H
  H89      1.0000 0.73813  0.06747  0.20327  Biso   1.000  H
  H90      1.0000 0.82623  0.07247  0.20077  Biso   1.000  H
  O37      1.0000 0.63335  0.89000  0.37308  Biso   1.000  O
  C127     1.0000 0.57210  0.87950  0.35611  Biso   1.000  C
  O38      1.0000 0.55520  0.85031  0.32828  Biso   1.000  O
  C128     1.0000 0.51340  0.89450  0.37270  Biso   1.000  C
  C129     1.0000 0.52570  0.92110  0.40500  Biso   1.000  C
  H91      1.0000 0.57320  0.92940  0.41650  Biso   1.000  H
  C130     1.0000 0.43470  0.97800  0.47290  Biso   1.000  C
  N19      1.0000 0.54930  0.97530  0.46950  Biso   1.000  N
  C131     1.0000 0.46440  0.02630  0.53260  Biso   1.000  C
  C132     1.0000 0.51720  0.90880  0.37140  Biso   1.000  C
  C133     1.0000 0.53780  0.95100  0.39940  Biso   1.000  C
  H92      1.0000 0.58800  0.96330  0.40970  Biso   1.000  H
  H93      1.0000 0.38330  0.97460  0.46860  Biso   1.000  H
  H94      1.0000 0.40480  0.00400  0.53660  Biso   1.000  H
  H95      1.0000 0.49290  0.08710  0.53410  Biso   1.000  H
  O39      1.0000 0.30002  0.22333  0.70641  Biso   1.000  O
  C134     1.0000 0.23877  0.21283  0.68944  Biso   1.000  C
  O40      1.0000 0.22187  0.18364  0.66161  Biso   1.000  O
  C135     1.0000 0.18007  0.22783  0.70603  Biso   1.000  C
  C136     1.0000 0.19237  0.25443  0.73833  Biso   1.000  C
  H96      1.0000 0.23987  0.26273  0.74983  Biso   1.000  H
  C137     1.0000 0.10137  0.31133  0.80623  Biso   1.000  C
  N20      1.0000 0.21597  0.30863  0.80283  Biso   1.000  N
  C138     1.0000 0.13107  0.35963  0.86593  Biso   1.000  C
  C139     1.0000 0.18387  0.24213  0.70473  Biso   1.000  C
  C140     1.0000 0.20447  0.28433  0.73273  Biso   1.000  C
  H97      1.0000 0.25467  0.29663  0.74303  Biso   1.000  H
  H98      1.0000 0.04997  0.30793  0.80193  Biso   1.000  H
  H99      1.0000 0.07147  0.33733  0.86993  Biso   1.000  H
  H100     1.0000 0.15957  0.42043  0.86743  Biso   1.000  H
  O41      1.0000 0.96668  0.55667  0.03975  Biso   1.000  O
  C141     1.0000 0.90543  0.54617  0.02278  Biso   1.000  C
  O42      1.0000 0.88853  0.51698  0.99495  Biso   1.000  O
  C142     1.0000 0.84673  0.56117  0.03937  Biso   1.000  C
  C143     1.0000 0.85903  0.58777  0.07167  Biso   1.000  C
  H101     1.0000 0.90653  0.59607  0.08317  Biso   1.000  H
  C144     1.0000 0.76803  0.64467  0.13957  Biso   1.000  C
  N21      1.0000 0.88263  0.64197  0.13617  Biso   1.000  N
  C145     1.0000 0.79773  0.69297  0.19927  Biso   1.000  C
  C146     1.0000 0.85053  0.57547  0.03807  Biso   1.000  C
  C147     1.0000 0.87113  0.61767  0.06607  Biso   1.000  C
  H102     1.0000 0.92133  0.62997  0.07637  Biso   1.000  H
  H103     1.0000 0.71663  0.64127  0.13527  Biso   1.000  H
  H104     1.0000 0.73813  0.67067  0.20327  Biso   1.000  H
  H105     1.0000 0.82623  0.75377  0.20077  Biso   1.000  H
  O43      1.0000 0.11000  0.74335  0.37308  Biso   1.000  O
  C148     1.0000 0.12050  0.69260  0.35611  Biso   1.000  C
  O44      1.0000 0.14969  0.70489  0.32828  Biso   1.000  O
  C149     1.0000 0.10550  0.61890  0.37270  Biso   1.000  C
  C150     1.0000 0.07890  0.60460  0.40500  Biso   1.000  C
  H106     1.0000 0.07060  0.64380  0.41650  Biso   1.000  H
  C151     1.0000 0.02200  0.45670  0.47290  Biso   1.000  C
  N22      1.0000 0.02470  0.57400  0.46950  Biso   1.000  N
  C152     1.0000 0.97370  0.43810  0.53260  Biso   1.000  C
  C153     1.0000 0.09120  0.60840  0.37140  Biso   1.000  C
  C154     1.0000 0.04900  0.58680  0.39940  Biso   1.000  C
  H107     1.0000 0.03670  0.62470  0.40970  Biso   1.000  H
  H108     1.0000 0.02540  0.40870  0.46860  Biso   1.000  H
  H109     1.0000 0.99600  0.40080  0.53660  Biso   1.000  H
  H110     1.0000 0.91290  0.40580  0.53410  Biso   1.000  H
  O45      1.0000 0.77667  0.07668  0.70641  Biso   1.000  O
  C155     1.0000 0.78717  0.02593  0.68944  Biso   1.000  C
  O46      1.0000 0.81636  0.03822  0.66161  Biso   1.000  O
  C156     1.0000 0.77217  0.95223  0.70603  Biso   1.000  C
  C157     1.0000 0.74557  0.93793  0.73833  Biso   1.000  C
  H111     1.0000 0.73727  0.97713  0.74983  Biso   1.000  H
  C158     1.0000 0.68867  0.79003  0.80623  Biso   1.000  C
  N23      1.0000 0.69137  0.90733  0.80283  Biso   1.000  N
  C159     1.0000 0.64037  0.77143  0.86593  Biso   1.000  C
  C160     1.0000 0.75787  0.94173  0.70473  Biso   1.000  C
  C161     1.0000 0.71567  0.92013  0.73273  Biso   1.000  C
  H112     1.0000 0.70337  0.95803  0.74303  Biso   1.000  H
  H113     1.0000 0.69207  0.74203  0.80193  Biso   1.000  H
  H114     1.0000 0.66267  0.73413  0.86993  Biso   1.000  H
  H115     1.0000 0.57957  0.73913  0.86743  Biso   1.000  H
  O47      1.0000 0.44333  0.41002  0.03975  Biso   1.000  O
  C162     1.0000 0.45383  0.35927  0.02278  Biso   1.000  C
  O48      1.0000 0.48302  0.37156  0.99495  Biso   1.000  O
  C163     1.0000 0.43883  0.28557  0.03937  Biso   1.000  C
  C164     1.0000 0.41223  0.27127  0.07167  Biso   1.000  C
  H116     1.0000 0.40393  0.31047  0.08317  Biso   1.000  H
  C165     1.0000 0.35533  0.12337  0.13957  Biso   1.000  C
  N24      1.0000 0.35803  0.24067  0.13617  Biso   1.000  N
  C166     1.0000 0.30703  0.10477  0.19927  Biso   1.000  C
  C167     1.0000 0.42453  0.27507  0.03807  Biso   1.000  C
  C168     1.0000 0.38233  0.25347  0.06607  Biso   1.000  C
  H117     1.0000 0.37003  0.29137  0.07637  Biso   1.000  H
  H118     1.0000 0.35873  0.07537  0.13527  Biso   1.000  H
  H119     1.0000 0.32933  0.06747  0.20327  Biso   1.000  H
  H120     1.0000 0.24623  0.07247  0.20077  Biso   1.000  H
  O49      1.0000 0.25665  0.36665  0.37308  Biso   1.000  O
  C169     1.0000 0.30740  0.42790  0.35611  Biso   1.000  C
  O50      1.0000 0.29511  0.44480  0.32828  Biso   1.000  O
  C170     1.0000 0.38110  0.48660  0.37270  Biso   1.000  C
  C171     1.0000 0.39540  0.47430  0.40500  Biso   1.000  C
  H121     1.0000 0.35620  0.42680  0.41650  Biso   1.000  H
  C172     1.0000 0.54330  0.56530  0.47290  Biso   1.000  C
  N25      1.0000 0.42600  0.45070  0.46950  Biso   1.000  N
  C173     1.0000 0.56190  0.53560  0.53260  Biso   1.000  C
  C174     1.0000 0.39160  0.48280  0.37140  Biso   1.000  C
  C175     1.0000 0.41320  0.46220  0.39940  Biso   1.000  C
  H122     1.0000 0.37530  0.41200  0.40970  Biso   1.000  H
  H123     1.0000 0.59130  0.61670  0.46860  Biso   1.000  H
  H124     1.0000 0.59920  0.59520  0.53660  Biso   1.000  H
  H125     1.0000 0.59420  0.50710  0.53410  Biso   1.000  H
  O51      1.0000 0.92332  0.69998  0.70641  Biso   1.000  O
  C176     1.0000 0.97407  0.76123  0.68944  Biso   1.000  C
  O52      1.0000 0.96178  0.77813  0.66161  Biso   1.000  O
  C177     1.0000 0.04777  0.81993  0.70603  Biso   1.000  C
  C178     1.0000 0.06207  0.80763  0.73833  Biso   1.000  C
  H126     1.0000 0.02287  0.76013  0.74983  Biso   1.000  H
  C179     1.0000 0.20997  0.89863  0.80623  Biso   1.000  C
  N26      1.0000 0.09267  0.78403  0.80283  Biso   1.000  N
  C180     1.0000 0.22857  0.86893  0.86593  Biso   1.000  C
  C181     1.0000 0.05827  0.81613  0.70473  Biso   1.000  C
  C182     1.0000 0.07987  0.79553  0.73273  Biso   1.000  C
  H127     1.0000 0.04197  0.74533  0.74303  Biso   1.000  H
  H128     1.0000 0.25797  0.95003  0.80193  Biso   1.000  H
  H129     1.0000 0.26587  0.92853  0.86993  Biso   1.000  H
  H130     1.0000 0.26087  0.84043  0.86743  Biso   1.000  H
  O53      1.0000 0.58998  0.03332  0.03975  Biso   1.000  O
  C183     1.0000 0.64073  0.09457  0.02278  Biso   1.000  C
  O54      1.0000 0.62844  0.11147  0.99495  Biso   1.000  O
  C184     1.0000 0.71443  0.15327  0.03937  Biso   1.000  C
  C185     1.0000 0.72873  0.14097  0.07167  Biso   1.000  C
  H131     1.0000 0.68953  0.09347  0.08317  Biso   1.000  H
  C186     1.0000 0.87663  0.23197  0.13957  Biso   1.000  C
  N27      1.0000 0.75933  0.11737  0.13617  Biso   1.000  N
  C187     1.0000 0.89523  0.20227  0.19927  Biso   1.000  C
  C188     1.0000 0.72493  0.14947  0.03807  Biso   1.000  C
  C189     1.0000 0.74653  0.12887  0.06607  Biso   1.000  C
  H132     1.0000 0.70863  0.07867  0.07637  Biso   1.000  H
  H133     1.0000 0.92463  0.28337  0.13527  Biso   1.000  H
  H134     1.0000 0.93253  0.26187  0.20327  Biso   1.000  H
  H135     1.0000 0.92753  0.17377  0.20077  Biso   1.000  H
  O55      1.0000 0.89000  0.63335  0.62692  Biso   1.000  O
  C190     1.0000 0.87950  0.57210  0.64389  Biso   1.000  C
  O56      1.0000 0.85031  0.55520  0.67172  Biso   1.000  O
  C191     1.0000 0.89450  0.51340  0.62730  Biso   1.000  C
  C192     1.0000 0.92110  0.52570  0.59500  Biso   1.000  C
  H136     1.0000 0.92940  0.57320  0.58350  Biso   1.000  H
  C193     1.0000 0.97800  0.43470  0.52710  Biso   1.000  C
  N28      1.0000 0.97530  0.54930  0.53050  Biso   1.000  N
  C194     1.0000 0.02630  0.46440  0.46740  Biso   1.000  C
  C195     1.0000 0.90880  0.51720  0.62860  Biso   1.000  C
  C196     1.0000 0.95100  0.53780  0.60060  Biso   1.000  C
  H137     1.0000 0.96330  0.58800  0.59030  Biso   1.000  H
  H138     1.0000 0.97460  0.38330  0.53140  Biso   1.000  H
  H139     1.0000 0.00400  0.40480  0.46340  Biso   1.000  H
  H140     1.0000 0.08710  0.49290  0.46590  Biso   1.000  H
  O57      1.0000 0.55667  0.96668  0.96025  Biso   1.000  O
  C197     1.0000 0.54617  0.90543  0.97722  Biso   1.000  C
  O58      1.0000 0.51698  0.88853  0.00505  Biso   1.000  O
  C198     1.0000 0.56117  0.84673  0.96063  Biso   1.000  C
  C199     1.0000 0.58777  0.85903  0.92833  Biso   1.000  C
  H141     1.0000 0.59607  0.90653  0.91683  Biso   1.000  H
  C200     1.0000 0.64467  0.76803  0.86043  Biso   1.000  C
  N29      1.0000 0.64197  0.88263  0.86383  Biso   1.000  N
  C201     1.0000 0.69297  0.79773  0.80073  Biso   1.000  C
  C202     1.0000 0.57547  0.85053  0.96193  Biso   1.000  C
  C203     1.0000 0.61767  0.87113  0.93393  Biso   1.000  C
  H142     1.0000 0.62997  0.92133  0.92363  Biso   1.000  H
  H143     1.0000 0.64127  0.71663  0.86473  Biso   1.000  H
  H144     1.0000 0.67067  0.73813  0.79673  Biso   1.000  H
  H145     1.0000 0.75377  0.82623  0.79923  Biso   1.000  H
  O59      1.0000 0.22333  0.30002  0.29359  Biso   1.000  O
  C204     1.0000 0.21283  0.23877  0.31056  Biso   1.000  C
  O60      1.0000 0.18364  0.22187  0.33839  Biso   1.000  O
  C205     1.0000 0.22783  0.18007  0.29397  Biso   1.000  C
  C206     1.0000 0.25443  0.19237  0.26167  Biso   1.000  C
  H146     1.0000 0.26273  0.23987  0.25017  Biso   1.000  H
  C207     1.0000 0.31133  0.10137  0.19377  Biso   1.000  C
  N30      1.0000 0.30863  0.21597  0.19717  Biso   1.000  N
  C208     1.0000 0.35963  0.13107  0.13407  Biso   1.000  C
  C209     1.0000 0.24213  0.18387  0.29527  Biso   1.000  C
  C210     1.0000 0.28433  0.20447  0.26727  Biso   1.000  C
  H147     1.0000 0.29663  0.25467  0.25697  Biso   1.000  H
  H148     1.0000 0.30793  0.04997  0.19807  Biso   1.000  H
  H149     1.0000 0.33733  0.07147  0.13007  Biso   1.000  H
  H150     1.0000 0.42043  0.15957  0.13257  Biso   1.000  H
  O61      1.0000 0.74335  0.11000  0.62692  Biso   1.000  O
  C211     1.0000 0.69260  0.12050  0.64389  Biso   1.000  C
  O62      1.0000 0.70489  0.14969  0.67172  Biso   1.000  O
  C212     1.0000 0.61890  0.10550  0.62730  Biso   1.000  C
  C213     1.0000 0.60460  0.07890  0.59500  Biso   1.000  C
  H151     1.0000 0.64380  0.07060  0.58350  Biso   1.000  H
  C214     1.0000 0.45670  0.02200  0.52710  Biso   1.000  C
  N31      1.0000 0.57400  0.02470  0.53050  Biso   1.000  N
  C215     1.0000 0.43810  0.97370  0.46740  Biso   1.000  C
  C216     1.0000 0.60840  0.09120  0.62860  Biso   1.000  C
  C217     1.0000 0.58680  0.04900  0.60060  Biso   1.000  C
  H152     1.0000 0.62470  0.03670  0.59030  Biso   1.000  H
  H153     1.0000 0.40870  0.02540  0.53140  Biso   1.000  H
  H154     1.0000 0.40080  0.99600  0.46340  Biso   1.000  H
  H155     1.0000 0.40580  0.91290  0.46590  Biso   1.000  H
  O63      1.0000 0.41002  0.44333  0.96025  Biso   1.000  O
  C218     1.0000 0.35927  0.45383  0.97722  Biso   1.000  C
  O64      1.0000 0.37156  0.48302  0.00505  Biso   1.000  O
  C219     1.0000 0.28557  0.43883  0.96063  Biso   1.000  C
  C220     1.0000 0.27127  0.41223  0.92833  Biso   1.000  C
  H156     1.0000 0.31047  0.40393  0.91683  Biso   1.000  H
  C221     1.0000 0.12337  0.35533  0.86043  Biso   1.000  C
  N32      1.0000 0.24067  0.35803  0.86383  Biso   1.000  N
  C222     1.0000 0.10477  0.30703  0.80073  Biso   1.000  C
  C223     1.0000 0.27507  0.42453  0.96193  Biso   1.000  C
  C224     1.0000 0.25347  0.38233  0.93393  Biso   1.000  C
  H157     1.0000 0.29137  0.37003  0.92363  Biso   1.000  H
  H158     1.0000 0.07537  0.35873  0.86473  Biso   1.000  H
  H159     1.0000 0.06747  0.32933  0.79673  Biso   1.000  H
  H160     1.0000 0.07247  0.24623  0.79923  Biso   1.000  H
  O65      1.0000 0.07668  0.77667  0.29359  Biso   1.000  O
  C225     1.0000 0.02593  0.78717  0.31056  Biso   1.000  C
  O66      1.0000 0.03822  0.81636  0.33839  Biso   1.000  O
  C226     1.0000 0.95223  0.77217  0.29397  Biso   1.000  C
  C227     1.0000 0.93793  0.74557  0.26167  Biso   1.000  C
  H161     1.0000 0.97713  0.73727  0.25017  Biso   1.000  H
  C228     1.0000 0.79003  0.68867  0.19377  Biso   1.000  C
  N33      1.0000 0.90733  0.69137  0.19717  Biso   1.000  N
  C229     1.0000 0.77143  0.64037  0.13407  Biso   1.000  C
  C230     1.0000 0.94173  0.75787  0.29527  Biso   1.000  C
  C231     1.0000 0.92013  0.71567  0.26727  Biso   1.000  C
  H162     1.0000 0.95803  0.70337  0.25697  Biso   1.000  H
  H163     1.0000 0.74203  0.69207  0.19807  Biso   1.000  H
  H164     1.0000 0.73413  0.66267  0.13007  Biso   1.000  H
  H165     1.0000 0.73913  0.57957  0.13257  Biso   1.000  H
  O67      1.0000 0.36665  0.25665  0.62692  Biso   1.000  O
  C232     1.0000 0.42790  0.30740  0.64389  Biso   1.000  C
  O68      1.0000 0.44480  0.29511  0.67172  Biso   1.000  O
  C233     1.0000 0.48660  0.38110  0.62730  Biso   1.000  C
  C234     1.0000 0.47430  0.39540  0.59500  Biso   1.000  C
  H166     1.0000 0.42680  0.35620  0.58350  Biso   1.000  H
  C235     1.0000 0.56530  0.54330  0.52710  Biso   1.000  C
  N34      1.0000 0.45070  0.42600  0.53050  Biso   1.000  N
  C236     1.0000 0.53560  0.56190  0.46740  Biso   1.000  C
  C237     1.0000 0.48280  0.39160  0.62860  Biso   1.000  C
  C238     1.0000 0.46220  0.41320  0.60060  Biso   1.000  C
  H167     1.0000 0.41200  0.37530  0.59030  Biso   1.000  H
  H168     1.0000 0.61670  0.59130  0.53140  Biso   1.000  H
  H169     1.0000 0.59520  0.59920  0.46340  Biso   1.000  H
  H170     1.0000 0.50710  0.59420  0.46590  Biso   1.000  H
  O69      1.0000 0.03332  0.58998  0.96025  Biso   1.000  O
  C239     1.0000 0.09457  0.64073  0.97722  Biso   1.000  C
  O70      1.0000 0.11147  0.62844  0.00505  Biso   1.000  O
  C240     1.0000 0.15327  0.71443  0.96063  Biso   1.000  C
  C241     1.0000 0.14097  0.72873  0.92833  Biso   1.000  C
  H171     1.0000 0.09347  0.68953  0.91683  Biso   1.000  H
  C242     1.0000 0.23197  0.87663  0.86043  Biso   1.000  C
  N35      1.0000 0.11737  0.75933  0.86383  Biso   1.000  N
  C243     1.0000 0.20227  0.89523  0.80073  Biso   1.000  C
  C244     1.0000 0.14947  0.72493  0.96193  Biso   1.000  C
  C245     1.0000 0.12887  0.74653  0.93393  Biso   1.000  C
  H172     1.0000 0.07867  0.70863  0.92363  Biso   1.000  H
  H173     1.0000 0.28337  0.92463  0.86473  Biso   1.000  H
  H174     1.0000 0.26187  0.93253  0.79673  Biso   1.000  H
  H175     1.0000 0.17377  0.92753  0.79923  Biso   1.000  H
  O71      1.0000 0.69998  0.92332  0.29359  Biso   1.000  O
  C246     1.0000 0.76123  0.97407  0.31056  Biso   1.000  C
  O72      1.0000 0.77813  0.96178  0.33839  Biso   1.000  O
  C247     1.0000 0.81993  0.04777  0.29397  Biso   1.000  C
  C248     1.0000 0.80763  0.06207  0.26167  Biso   1.000  C
  H176     1.0000 0.76013  0.02287  0.25017  Biso   1.000  H
  C249     1.0000 0.89863  0.20997  0.19377  Biso   1.000  C
  N36      1.0000 0.78403  0.09267  0.19717  Biso   1.000  N
  C250     1.0000 0.86893  0.22857  0.13407  Biso   1.000  C
  C251     1.0000 0.81613  0.05827  0.29527  Biso   1.000  C
  C252     1.0000 0.79553  0.07987  0.26727  Biso   1.000  C
  H177     1.0000 0.74533  0.04197  0.25697  Biso   1.000  H
  H178     1.0000 0.95003  0.25797  0.19807  Biso   1.000  H
  H179     1.0000 0.92853  0.26587  0.13007  Biso   1.000  H
  H180     1.0000 0.84043  0.26087  0.13257  Biso   1.000  H
  Cu1      1.0000 0.28764  0.14382  0.63978  Biso   1.000  Cu
  Cu2      1.0000 0.95431  0.47715  0.97311  Biso   1.000  Cu
  Cu3      1.0000 0.62097  0.81049  0.30644  Biso   1.000  Cu
  Cu4      1.0000 0.85618  0.14382  0.63978  Biso   1.000  Cu
  Cu5      1.0000 0.52285  0.47715  0.97311  Biso   1.000  Cu
  Cu6      1.0000 0.18951  0.81049  0.30644  Biso   1.000  Cu
  Cu7      1.0000 0.85618  0.71236  0.63978  Biso   1.000  Cu
  Cu8      1.0000 0.52285  0.04569  0.97311  Biso   1.000  Cu
  Cu9      1.0000 0.18951  0.37903  0.30644  Biso   1.000  Cu
  Cu10     1.0000 0.14382  0.28764  0.36022  Biso   1.000  Cu
  Cu11     1.0000 0.81049  0.62097  0.69356  Biso   1.000  Cu
  Cu12     1.0000 0.47715  0.95431  0.02689  Biso   1.000  Cu
  Cu13     1.0000 0.14382  0.85618  0.36022  Biso   1.000  Cu
  Cu14     1.0000 0.81049  0.18951  0.69356  Biso   1.000  Cu
  Cu15     1.0000 0.47715  0.52285  0.02689  Biso   1.000  Cu
  Cu16     1.0000 0.71236  0.85618  0.36022  Biso   1.000  Cu
  Cu17     1.0000 0.37903  0.18951  0.69356  Biso   1.000  Cu
  Cu18     1.0000 0.04569  0.52285  0.02689  Biso   1.000  Cu
  C253     1.0000 0.53255  0.06510  0.58010  Biso   1.000  C
  C254     1.0000 0.55855  0.11710  0.64290  Biso   1.000  C
  H181     1.0000 0.56680  0.13360  0.66500  Biso   1.000  H
  N37      1.0000 0.51910  0.03820  0.54690  Biso   1.000  N
  O73      1.0000 0.50290  0.00580  0.44490  Biso   1.000  O
  C255     1.0000 0.51160  0.02320  0.58650  Biso   1.000  C
  C256     1.0000 0.55505  0.11010  0.64490  Biso   1.000  C
  C257     1.0000 0.19922  0.39843  0.91343  Biso   1.000  C
  C258     1.0000 0.22522  0.45043  0.97623  Biso   1.000  C
  H182     1.0000 0.23347  0.46693  0.99833  Biso   1.000  H
  N38      1.0000 0.18577  0.37153  0.88023  Biso   1.000  N
  O74      1.0000 0.16957  0.33913  0.77823  Biso   1.000  O
  C259     1.0000 0.17827  0.35653  0.91983  Biso   1.000  C
  C260     1.0000 0.22172  0.44343  0.97823  Biso   1.000  C
  C261     1.0000 0.86588  0.73177  0.24677  Biso   1.000  C
  C262     1.0000 0.89188  0.78377  0.30957  Biso   1.000  C
  H183     1.0000 0.90013  0.80027  0.33167  Biso   1.000  H
  N39      1.0000 0.85243  0.70487  0.21357  Biso   1.000  N
  O75      1.0000 0.83623  0.67247  0.11157  Biso   1.000  O
  C263     1.0000 0.84493  0.68987  0.25317  Biso   1.000  C
  C264     1.0000 0.88838  0.77677  0.31157  Biso   1.000  C
  C265     1.0000 0.93490  0.46745  0.58010  Biso   1.000  C
  C266     1.0000 0.88290  0.44145  0.64290  Biso   1.000  C
  H184     1.0000 0.86640  0.43320  0.66500  Biso   1.000  H
  N40      1.0000 0.96180  0.48090  0.54690  Biso   1.000  N
  O76      1.0000 0.99420  0.49710  0.44490  Biso   1.000  O
  C267     1.0000 0.97680  0.48840  0.58650  Biso   1.000  C
  C268     1.0000 0.88990  0.44495  0.64490  Biso   1.000  C
  C269     1.0000 0.60157  0.80078  0.91343  Biso   1.000  C
  C270     1.0000 0.54957  0.77478  0.97623  Biso   1.000  C
  H185     1.0000 0.53307  0.76653  0.99833  Biso   1.000  H
  N41      1.0000 0.62847  0.81423  0.88023  Biso   1.000  N
  O77      1.0000 0.66087  0.83043  0.77823  Biso   1.000  O
  C271     1.0000 0.64347  0.82173  0.91983  Biso   1.000  C
  C272     1.0000 0.55657  0.77828  0.97823  Biso   1.000  C
  C273     1.0000 0.26823  0.13412  0.24677  Biso   1.000  C
  C274     1.0000 0.21623  0.10812  0.30957  Biso   1.000  C
  H186     1.0000 0.19973  0.09987  0.33167  Biso   1.000  H
  N42      1.0000 0.29513  0.14757  0.21357  Biso   1.000  N
  O78      1.0000 0.32753  0.16377  0.11157  Biso   1.000  O
  C275     1.0000 0.31013  0.15507  0.25317  Biso   1.000  C
  C276     1.0000 0.22323  0.11162  0.31157  Biso   1.000  C
  C277     1.0000 0.53255  0.46745  0.58010  Biso   1.000  C
  C278     1.0000 0.55855  0.44145  0.64290  Biso   1.000  C
  H187     1.0000 0.56680  0.43320  0.66500  Biso   1.000  H
  N43      1.0000 0.51910  0.48090  0.54690  Biso   1.000  N
  O79      1.0000 0.50290  0.49710  0.44490  Biso   1.000  O
  C279     1.0000 0.51160  0.48840  0.58650  Biso   1.000  C
  C280     1.0000 0.55505  0.44495  0.64490  Biso   1.000  C
  C281     1.0000 0.19922  0.80078  0.91343  Biso   1.000  C
  C282     1.0000 0.22522  0.77478  0.97623  Biso   1.000  C
  H188     1.0000 0.23347  0.76653  0.99833  Biso   1.000  H
  N44      1.0000 0.18577  0.81423  0.88023  Biso   1.000  N
  O80      1.0000 0.16957  0.83043  0.77823  Biso   1.000  O
  C283     1.0000 0.17827  0.82173  0.91983  Biso   1.000  C
  C284     1.0000 0.22172  0.77828  0.97823  Biso   1.000  C
  C285     1.0000 0.86588  0.13412  0.24677  Biso   1.000  C
  C286     1.0000 0.89188  0.10812  0.30957  Biso   1.000  C
  H189     1.0000 0.90013  0.09987  0.33167  Biso   1.000  H
  N45      1.0000 0.85243  0.14757  0.21357  Biso   1.000  N
  O81      1.0000 0.83623  0.16377  0.11157  Biso   1.000  O
  C287     1.0000 0.84493  0.15507  0.25317  Biso   1.000  C
  C288     1.0000 0.88838  0.11162  0.31157  Biso   1.000  C
  C289     1.0000 0.06510  0.53255  0.41990  Biso   1.000  C
  C290     1.0000 0.11710  0.55855  0.35710  Biso   1.000  C
  H190     1.0000 0.13360  0.56680  0.33500  Biso   1.000  H
  N46      1.0000 0.03820  0.51910  0.45310  Biso   1.000  N
  O82      1.0000 0.00580  0.50290  0.55510  Biso   1.000  O
  C291     1.0000 0.02320  0.51160  0.41350  Biso   1.000  C
  C292     1.0000 0.11010  0.55505  0.35510  Biso   1.000  C
  C293     1.0000 0.73177  0.86588  0.75323  Biso   1.000  C
  C294     1.0000 0.78377  0.89188  0.69043  Biso   1.000  C
  H191     1.0000 0.80027  0.90013  0.66833  Biso   1.000  H
  N47      1.0000 0.70487  0.85243  0.78643  Biso   1.000  N
  O83      1.0000 0.67247  0.83623  0.88843  Biso   1.000  O
  C295     1.0000 0.68987  0.84493  0.74683  Biso   1.000  C
  C296     1.0000 0.77677  0.88838  0.68843  Biso   1.000  C
  C297     1.0000 0.39843  0.19922  0.08657  Biso   1.000  C
  C298     1.0000 0.45043  0.22522  0.02377  Biso   1.000  C
  H192     1.0000 0.46693  0.23347  0.00167  Biso   1.000  H
  N48      1.0000 0.37153  0.18577  0.11977  Biso   1.000  N
  O84      1.0000 0.33913  0.16957  0.22177  Biso   1.000  O
  C299     1.0000 0.35653  0.17827  0.08017  Biso   1.000  C
  C300     1.0000 0.44343  0.22172  0.02177  Biso   1.000  C
  C301     1.0000 0.46745  0.93490  0.41990  Biso   1.000  C
  C302     1.0000 0.44145  0.88290  0.35710  Biso   1.000  C
  H193     1.0000 0.43320  0.86640  0.33500  Biso   1.000  H
  N49      1.0000 0.48090  0.96180  0.45310  Biso   1.000  N
  O85      1.0000 0.49710  0.99420  0.55510  Biso   1.000  O
  C303     1.0000 0.48840  0.97680  0.41350  Biso   1.000  C
  C304     1.0000 0.44495  0.88990  0.35510  Biso   1.000  C
  C305     1.0000 0.13412  0.26823  0.75323  Biso   1.000  C
  C306     1.0000 0.10812  0.21623  0.69043  Biso   1.000  C
  H194     1.0000 0.09987  0.19973  0.66833  Biso   1.000  H
  N50      1.0000 0.14757  0.29513  0.78643  Biso   1.000  N
  O86      1.0000 0.16377  0.32753  0.88843  Biso   1.000  O
  C307     1.0000 0.15507  0.31013  0.74683  Biso   1.000  C
  C308     1.0000 0.11162  0.22323  0.68843  Biso   1.000  C
  C309     1.0000 0.80078  0.60157  0.08657  Biso   1.000  C
  C310     1.0000 0.77478  0.54957  0.02377  Biso   1.000  C
  H195     1.0000 0.76653  0.53307  0.00167  Biso   1.000  H
  N51      1.0000 0.81423  0.62847  0.11977  Biso   1.000  N
  O87      1.0000 0.83043  0.66087  0.22177  Biso   1.000  O
  C311     1.0000 0.82173  0.64347  0.08017  Biso   1.000  C
  C312     1.0000 0.77828  0.55657  0.02177  Biso   1.000  C
  C313     1.0000 0.46745  0.53255  0.41990  Biso   1.000  C
  C314     1.0000 0.44145  0.55855  0.35710  Biso   1.000  C
  H196     1.0000 0.43320  0.56680  0.33500  Biso   1.000  H
  N52      1.0000 0.48090  0.51910  0.45310  Biso   1.000  N
  O88      1.0000 0.49710  0.50290  0.55510  Biso   1.000  O
  C315     1.0000 0.48840  0.51160  0.41350  Biso   1.000  C
  C316     1.0000 0.44495  0.55505  0.35510  Biso   1.000  C
  C317     1.0000 0.13412  0.86588  0.75323  Biso   1.000  C
  C318     1.0000 0.10812  0.89188  0.69043  Biso   1.000  C
  H197     1.0000 0.09987  0.90013  0.66833  Biso   1.000  H
  N53      1.0000 0.14757  0.85243  0.78643  Biso   1.000  N
  O89      1.0000 0.16377  0.83623  0.88843  Biso   1.000  O
  C319     1.0000 0.15507  0.84493  0.74683  Biso   1.000  C
  C320     1.0000 0.11162  0.88838  0.68843  Biso   1.000  C
  C321     1.0000 0.80078  0.19922  0.08657  Biso   1.000  C
  C322     1.0000 0.77478  0.22522  0.02377  Biso   1.000  C
  H198     1.0000 0.76653  0.23347  0.00167  Biso   1.000  H
  N54      1.0000 0.81423  0.18577  0.11977  Biso   1.000  N
  O90      1.0000 0.83043  0.16957  0.22177  Biso   1.000  O
  C323     1.0000 0.82173  0.17827  0.08017  Biso   1.000  C
  C324     1.0000 0.77828  0.22172  0.02177  Biso   1.000  C
  C325     1.0000 0.52200  0.00000  0.50000  Biso   1.000  C
  N55      1.0000 0.44890  0.00000  0.50000  Biso   1.000  N
  C326     1.0000 0.18867  0.33333  0.83333  Biso   1.000  C
  N56      1.0000 0.11557  0.33333  0.83333  Biso   1.000  N
  C327     1.0000 0.85533  0.66667  0.16667  Biso   1.000  C
  N57      1.0000 0.78223  0.66667  0.16667  Biso   1.000  N
  C328     1.0000 0.00000  0.52200  0.50000  Biso   1.000  C
  N58      1.0000 0.00000  0.44890  0.50000  Biso   1.000  N
  C329     1.0000 0.66667  0.85533  0.83333  Biso   1.000  C
  N59      1.0000 0.66667  0.78223  0.83333  Biso   1.000  N
  C330     1.0000 0.33333  0.18867  0.16667  Biso   1.000  C
  N60      1.0000 0.33333  0.11557  0.16667  Biso   1.000  N
  C331     1.0000 0.47800  0.47800  0.50000  Biso   1.000  C
  N61      1.0000 0.55110  0.55110  0.50000  Biso   1.000  N
  C332     1.0000 0.14467  0.81133  0.83333  Biso   1.000  C
  N62      1.0000 0.21777  0.88443  0.83333  Biso   1.000  N
  C333     1.0000 0.81133  0.14467  0.16667  Biso   1.000  C
  N63      1.0000 0.88443  0.21777  0.16667  Biso   1.000  N
  C334     1.0000 0.47800  0.00000  0.50000  Biso   1.000  C
  N64      1.0000 0.55110  0.00000  0.50000  Biso   1.000  N
  C335     1.0000 0.14467  0.33333  0.83333  Biso   1.000  C
  N65      1.0000 0.21777  0.33333  0.83333  Biso   1.000  N
  C336     1.0000 0.81133  0.66667  0.16667  Biso   1.000  C
  N66      1.0000 0.88443  0.66667  0.16667  Biso   1.000  N
  C337     1.0000 0.00000  0.47800  0.50000  Biso   1.000  C
  N67      1.0000 0.00000  0.55110  0.50000  Biso   1.000  N
  C338     1.0000 0.66667  0.81133  0.83333  Biso   1.000  C
  N68      1.0000 0.66667  0.88443  0.83333  Biso   1.000  N
  C339     1.0000 0.33333  0.14467  0.16667  Biso   1.000  C
  N69      1.0000 0.33333  0.21777  0.16667  Biso   1.000  N
  C340     1.0000 0.52200  0.52200  0.50000  Biso   1.000  C
  N70      1.0000 0.44890  0.44890  0.50000  Biso   1.000  N
  C341     1.0000 0.18867  0.85533  0.83333  Biso   1.000  C
  N71      1.0000 0.11557  0.78223  0.83333  Biso   1.000  N
  C342     1.0000 0.85533  0.18867  0.16667  Biso   1.000  C
  N72      1.0000 0.78223  0.11557  0.16667  Biso   1.000  N
