data_image0
_cell_length_a       21.879
_cell_length_b       23.701
_cell_length_c       19.687
_cell_angle_alpha    90
_cell_angle_beta     90
_cell_angle_gamma    90

_symmetry_space_group_name_H-M    "P 1"
_symmetry_int_tables_number       1

loop_
  _symmetry_equiv_pos_as_xyz
  'x, y, z'

loop_
  _atom_site_label
  _atom_site_occupancy
  _atom_site_fract_x
  _atom_site_fract_y
  _atom_site_fract_z
  _atom_site_thermal_displace_type
  _atom_site_B_iso_or_equiv
  _atom_site_type_symbol
  Co1      1.0000 0.12550  0.67709  0.51616  Biso   1.000  Co
  C1       1.0000 0.24010  0.66700  0.60130  Biso   1.000  C
  H1       1.0000 0.25240  0.69320  0.56880  Biso   1.000  H
  C2       1.0000 0.17130  0.60550  0.64120  Biso   1.000  C
  H2       1.0000 0.13390  0.58730  0.63640  Biso   1.000  H
  C3       1.0000 0.28200  0.65340  0.65370  Biso   1.000  C
  H3       1.0000 0.32000  0.67090  0.65590  Biso   1.000  H
  C4       1.0000 0.20830  0.59090  0.69370  Biso   1.000  C
  H4       1.0000 0.19490  0.56470  0.72550  Biso   1.000  H
  C5       1.0000 0.26550  0.61440  0.70050  Biso   1.000  C
  C6       1.0000 0.30650  0.59700  0.75610  Biso   1.000  C
  C7       1.0000 0.38180  0.59660  0.82990  Biso   1.000  C
  C8       1.0000 0.34830  0.54680  0.83560  Biso   1.000  C
  C9       1.0000 0.43730  0.61430  0.86320  Biso   1.000  C
  C10      1.0000 0.45300  0.66960  0.87460  Biso   1.000  C
  H5       1.0000 0.42770  0.69810  0.85820  Biso   1.000  H
  C11      1.0000 0.48260  0.57560  0.88320  Biso   1.000  C
  H6       1.0000 0.47640  0.53750  0.87430  Biso   1.000  H
  C12      1.0000 0.50400  0.68370  0.90890  Biso   1.000  C
  H7       1.0000 0.51050  0.72170  0.91820  Biso   1.000  H
  C13      1.0000 0.53490  0.59110  0.91470  Biso   1.000  C
  H8       1.0000 0.56410  0.56420  0.92610  Biso   1.000  H
  C14      1.0000 0.35520  0.49720  0.87840  Biso   1.000  C
  C15      1.0000 0.41210  0.47200  0.89130  Biso   1.000  C
  H9       1.0000 0.44770  0.48780  0.87380  Biso   1.000  H
  C16      1.0000 0.30480  0.47060  0.90970  Biso   1.000  C
  H10      1.0000 0.26600  0.48610  0.90500  Biso   1.000  H
  C17      1.0000 0.41480  0.42380  0.93000  Biso   1.000  C
  H11      1.0000 0.45260  0.40630  0.93540  Biso   1.000  H
  C18      1.0000 0.31240  0.42250  0.94670  Biso   1.000  C
  H12      1.0000 0.27810  0.40390  0.96340  Biso   1.000  H
  C19      1.0000 0.28480  0.70020  0.35280  Biso   1.000  C
  H13      1.0000 0.26340  0.66720  0.36200  Biso   1.000  H
  C20      1.0000 0.32980  0.69990  0.30460  Biso   1.000  C
  H14      1.0000 0.33930  0.66680  0.28160  Biso   1.000  H
  C21      1.0000 0.44000  0.70120  0.21670  Biso   1.000  C
  H15      1.0000 0.42950  0.66770  0.23820  Biso   1.000  H
  C22      1.0000 0.48460  0.70020  0.16810  Biso   1.000  C
  H16      1.0000 0.50320  0.66630  0.15630  Biso   1.000  H
  N1       1.0000 0.18707  0.64600  0.59550  Biso   1.000  N
  N2       1.0000 0.35390  0.62720  0.78010  Biso   1.000  N
  H17      1.0000 0.36470  0.66020  0.76640  Biso   1.000  H
  N3       1.0000 0.30030  0.54950  0.78960  Biso   1.000  N
  N4       1.0000 0.54477  0.64810  0.92990  Biso   1.000  N
  N5       1.0000 0.36762  0.40120  0.95970  Biso   1.000  N
  O1       1.0000 0.20197  0.70307  0.46180  Biso   1.000  O
  O2       1.0000 0.56734  0.79658  0.05970  Biso   1.000  O
  C23      1.0000 0.22500  0.68210  0.62220  Biso   1.000  C
  H18      1.0000 0.22850  0.71740  0.60200  Biso   1.000  H
  C24      1.0000 0.19290  0.59410  0.61880  Biso   1.000  C
  H19      1.0000 0.16800  0.56700  0.59870  Biso   1.000  H
  C25      1.0000 0.26170  0.67050  0.68080  Biso   1.000  C
  H20      1.0000 0.28180  0.69900  0.70440  Biso   1.000  H
  C26      1.0000 0.22970  0.57610  0.66730  Biso   1.000  C
  H21      1.0000 0.23120  0.53800  0.67860  Biso   1.000  H
  C27      1.0000 0.48120  0.64690  0.83340  Biso   1.000  C
  H22      1.0000 0.47560  0.65820  0.78860  Biso   1.000  H
  C28      1.0000 0.44870  0.60040  0.93190  Biso   1.000  C
  H23      1.0000 0.42090  0.57740  0.95450  Biso   1.000  H
  C29      1.0000 0.53240  0.66330  0.86580  Biso   1.000  C
  H24      1.0000 0.56020  0.68610  0.84290  Biso   1.000  H
  C30      1.0000 0.49770  0.61890  0.96560  Biso   1.000  C
  H25      1.0000 0.50110  0.61280  0.01210  Biso   1.000  H
  C31      1.0000 0.37120  0.50170  0.94380  Biso   1.000  C
  H26      1.0000 0.37930  0.53650  0.96360  Biso   1.000  H
  C32      1.0000 0.34830  0.44240  0.85010  Biso   1.000  C
  H27      1.0000 0.34130  0.43730  0.80390  Biso   1.000  H
  C33      1.0000 0.37510  0.45190  0.98100  Biso   1.000  C
  H28      1.0000 0.38420  0.45590  0.02690  Biso   1.000  H
  C34      1.0000 0.35250  0.39740  0.89350  Biso   1.000  C
  H29      1.0000 0.34440  0.36170  0.87610  Biso   1.000  H
  C35      1.0000 0.30440  0.70150  0.37640  Biso   1.000  C
  H30      1.0000 0.29680  0.66870  0.40100  Biso   1.000  H
  C36      1.0000 0.34960  0.70190  0.32760  Biso   1.000  C
  H31      1.0000 0.37230  0.66940  0.31980  Biso   1.000  H
  C37      1.0000 0.41910  0.70320  0.19400  Biso   1.000  C
  H32      1.0000 0.39370  0.67190  0.19790  Biso   1.000  H
  C38      1.0000 0.46560  0.70370  0.14770  Biso   1.000  C
  H33      1.0000 0.47290  0.67120  0.12250  Biso   1.000  H
  Co2      1.0000 0.37450  0.32291  0.01616  Biso   1.000  Co
  C39      1.0000 0.25990  0.33300  0.10130  Biso   1.000  C
  H34      1.0000 0.24760  0.30680  0.06880  Biso   1.000  H
  C40      1.0000 0.32870  0.39450  0.14120  Biso   1.000  C
  H35      1.0000 0.36610  0.41270  0.13640  Biso   1.000  H
  C41      1.0000 0.21800  0.34660  0.15370  Biso   1.000  C
  H36      1.0000 0.18000  0.32910  0.15590  Biso   1.000  H
  C42      1.0000 0.29170  0.40910  0.19370  Biso   1.000  C
  H37      1.0000 0.30510  0.43530  0.22550  Biso   1.000  H
  C43      1.0000 0.23450  0.38560  0.20050  Biso   1.000  C
  C44      1.0000 0.19350  0.40300  0.25610  Biso   1.000  C
  C45      1.0000 0.11820  0.40340  0.32990  Biso   1.000  C
  C46      1.0000 0.15170  0.45320  0.33560  Biso   1.000  C
  C47      1.0000 0.06270  0.38570  0.36320  Biso   1.000  C
  C48      1.0000 0.04700  0.33040  0.37460  Biso   1.000  C
  H38      1.0000 0.07230  0.30190  0.35820  Biso   1.000  H
  C49      1.0000 0.01740  0.42440  0.38320  Biso   1.000  C
  H39      1.0000 0.02360  0.46250  0.37430  Biso   1.000  H
  C50      1.0000 0.99600  0.31630  0.40890  Biso   1.000  C
  H40      1.0000 0.98950  0.27830  0.41820  Biso   1.000  H
  C51      1.0000 0.96510  0.40890  0.41470  Biso   1.000  C
  H41      1.0000 0.93590  0.43580  0.42610  Biso   1.000  H
  C52      1.0000 0.14480  0.50280  0.37840  Biso   1.000  C
  C53      1.0000 0.08790  0.52800  0.39130  Biso   1.000  C
  H42      1.0000 0.05230  0.51220  0.37380  Biso   1.000  H
  C54      1.0000 0.19520  0.52940  0.40970  Biso   1.000  C
  H43      1.0000 0.23400  0.51390  0.40500  Biso   1.000  H
  C55      1.0000 0.08520  0.57620  0.43000  Biso   1.000  C
  H44      1.0000 0.04740  0.59370  0.43540  Biso   1.000  H
  C56      1.0000 0.18760  0.57750  0.44670  Biso   1.000  C
  H45      1.0000 0.22190  0.59610  0.46340  Biso   1.000  H
  C57      1.0000 0.21520  0.29980  0.85280  Biso   1.000  C
  H46      1.0000 0.23660  0.33280  0.86200  Biso   1.000  H
  C58      1.0000 0.17020  0.30010  0.80460  Biso   1.000  C
  H47      1.0000 0.16070  0.33320  0.78160  Biso   1.000  H
  C59      1.0000 0.06000  0.29880  0.71670  Biso   1.000  C
  H48      1.0000 0.07050  0.33230  0.73820  Biso   1.000  H
  C60      1.0000 0.01540  0.29980  0.66810  Biso   1.000  C
  H49      1.0000 0.99680  0.33370  0.65630  Biso   1.000  H
  N6       1.0000 0.31293  0.35400  0.09550  Biso   1.000  N
  N7       1.0000 0.14610  0.37280  0.28010  Biso   1.000  N
  H50      1.0000 0.13530  0.33980  0.26640  Biso   1.000  H
  N8       1.0000 0.19970  0.45050  0.28960  Biso   1.000  N
  N9       1.0000 0.95523  0.35190  0.42990  Biso   1.000  N
  N10      1.0000 0.13238  0.59880  0.45970  Biso   1.000  N
  O3       1.0000 0.29803  0.29693  0.96180  Biso   1.000  O
  O4       1.0000 0.93266  0.20342  0.55970  Biso   1.000  O
  C61      1.0000 0.27500  0.31790  0.12220  Biso   1.000  C
  H51      1.0000 0.27150  0.28260  0.10200  Biso   1.000  H
  C62      1.0000 0.30710  0.40590  0.11880  Biso   1.000  C
  H52      1.0000 0.33200  0.43300  0.09870  Biso   1.000  H
  C63      1.0000 0.23830  0.32950  0.18080  Biso   1.000  C
  H53      1.0000 0.21820  0.30100  0.20440  Biso   1.000  H
  C64      1.0000 0.27030  0.42390  0.16730  Biso   1.000  C
  H54      1.0000 0.26880  0.46200  0.17860  Biso   1.000  H
  C65      1.0000 0.01880  0.35310  0.33340  Biso   1.000  C
  H55      1.0000 0.02440  0.34180  0.28860  Biso   1.000  H
  C66      1.0000 0.05130  0.39960  0.43190  Biso   1.000  C
  H56      1.0000 0.07910  0.42260  0.45450  Biso   1.000  H
  C67      1.0000 0.96760  0.33670  0.36580  Biso   1.000  C
  H57      1.0000 0.93980  0.31390  0.34290  Biso   1.000  H
  C68      1.0000 0.00230  0.38110  0.46560  Biso   1.000  C
  H58      1.0000 0.99890  0.38720  0.51210  Biso   1.000  H
  C69      1.0000 0.12880  0.49830  0.44380  Biso   1.000  C
  H59      1.0000 0.12070  0.46350  0.46360  Biso   1.000  H
  C70      1.0000 0.15170  0.55760  0.35010  Biso   1.000  C
  H60      1.0000 0.15870  0.56270  0.30390  Biso   1.000  H
  C71      1.0000 0.12490  0.54810  0.48100  Biso   1.000  C
  H61      1.0000 0.11580  0.54410  0.52690  Biso   1.000  H
  C72      1.0000 0.14750  0.60260  0.39350  Biso   1.000  C
  H62      1.0000 0.15560  0.63830  0.37610  Biso   1.000  H
  C73      1.0000 0.19560  0.29850  0.87640  Biso   1.000  C
  H63      1.0000 0.20320  0.33130  0.90100  Biso   1.000  H
  C74      1.0000 0.15040  0.29810  0.82760  Biso   1.000  C
  H64      1.0000 0.12770  0.33060  0.81980  Biso   1.000  H
  C75      1.0000 0.08090  0.29680  0.69400  Biso   1.000  C
  H65      1.0000 0.10630  0.32810  0.69790  Biso   1.000  H
  C76      1.0000 0.03440  0.29630  0.64770  Biso   1.000  C
  H66      1.0000 0.02710  0.32880  0.62250  Biso   1.000  H
  Co3      1.0000 0.87450  0.17709  0.48384  Biso   1.000  Co
  C77      1.0000 0.75990  0.16700  0.39870  Biso   1.000  C
  H67      1.0000 0.74760  0.19320  0.43120  Biso   1.000  H
  C78      1.0000 0.82870  0.10550  0.35880  Biso   1.000  C
  H68      1.0000 0.86610  0.08730  0.36360  Biso   1.000  H
  C79      1.0000 0.71800  0.15340  0.34630  Biso   1.000  C
  H69      1.0000 0.68000  0.17090  0.34410  Biso   1.000  H
  C80      1.0000 0.79170  0.09090  0.30630  Biso   1.000  C
  H70      1.0000 0.80510  0.06470  0.27450  Biso   1.000  H
  C81      1.0000 0.73450  0.11440  0.29950  Biso   1.000  C
  C82      1.0000 0.69350  0.09700  0.24390  Biso   1.000  C
  C83      1.0000 0.61820  0.09660  0.17010  Biso   1.000  C
  C84      1.0000 0.65170  0.04680  0.16440  Biso   1.000  C
  C85      1.0000 0.56270  0.11430  0.13680  Biso   1.000  C
  C86      1.0000 0.54700  0.16960  0.12540  Biso   1.000  C
  H71      1.0000 0.57230  0.19810  0.14180  Biso   1.000  H
  C87      1.0000 0.51740  0.07560  0.11680  Biso   1.000  C
  H72      1.0000 0.52360  0.03750  0.12570  Biso   1.000  H
  C88      1.0000 0.49600  0.18370  0.09110  Biso   1.000  C
  H73      1.0000 0.48950  0.22170  0.08180  Biso   1.000  H
  C89      1.0000 0.46510  0.09110  0.08530  Biso   1.000  C
  H74      1.0000 0.43590  0.06420  0.07390  Biso   1.000  H
  C90      1.0000 0.64480  0.99720  0.12160  Biso   1.000  C
  C91      1.0000 0.58790  0.97200  0.10870  Biso   1.000  C
  H75      1.0000 0.55230  0.98780  0.12620  Biso   1.000  H
  C92      1.0000 0.69520  0.97060  0.09030  Biso   1.000  C
  H76      1.0000 0.73400  0.98610  0.09500  Biso   1.000  H
  C93      1.0000 0.58520  0.92380  0.07000  Biso   1.000  C
  H77      1.0000 0.54740  0.90630  0.06460  Biso   1.000  H
  C94      1.0000 0.68760  0.92250  0.05330  Biso   1.000  C
  H78      1.0000 0.72190  0.90390  0.03660  Biso   1.000  H
  C95      1.0000 0.71520  0.20020  0.64720  Biso   1.000  C
  H79      1.0000 0.73660  0.16720  0.63800  Biso   1.000  H
  C96      1.0000 0.67020  0.19990  0.69540  Biso   1.000  C
  H80      1.0000 0.66070  0.16680  0.71840  Biso   1.000  H
  C97      1.0000 0.56000  0.20120  0.78330  Biso   1.000  C
  H81      1.0000 0.57050  0.16770  0.76180  Biso   1.000  H
  C98      1.0000 0.51540  0.20020  0.83190  Biso   1.000  C
  H82      1.0000 0.49680  0.16630  0.84370  Biso   1.000  H
  N11      1.0000 0.81293  0.14600  0.40450  Biso   1.000  N
  N12      1.0000 0.64610  0.12720  0.21990  Biso   1.000  N
  H83      1.0000 0.63530  0.16020  0.23360  Biso   1.000  H
  N13      1.0000 0.69970  0.04950  0.21040  Biso   1.000  N
  N14      1.0000 0.45523  0.14810  0.07010  Biso   1.000  N
  N15      1.0000 0.63238  0.90120  0.04030  Biso   1.000  N
  O5       1.0000 0.79803  0.20307  0.53820  Biso   1.000  O
  O6       1.0000 0.43266  0.29658  0.94030  Biso   1.000  O
  C99      1.0000 0.77500  0.18210  0.37780  Biso   1.000  C
  H84      1.0000 0.77150  0.21740  0.39800  Biso   1.000  H
  C100     1.0000 0.80710  0.09410  0.38120  Biso   1.000  C
  H85      1.0000 0.83200  0.06700  0.40130  Biso   1.000  H
  C101     1.0000 0.73830  0.17050  0.31920  Biso   1.000  C
  H86      1.0000 0.71820  0.19900  0.29560  Biso   1.000  H
  C102     1.0000 0.77030  0.07610  0.33270  Biso   1.000  C
  H87      1.0000 0.76880  0.03800  0.32140  Biso   1.000  H
  C103     1.0000 0.51880  0.14690  0.16660  Biso   1.000  C
  H88      1.0000 0.52440  0.15820  0.21140  Biso   1.000  H
  C104     1.0000 0.55130  0.10040  0.06810  Biso   1.000  C
  H89      1.0000 0.57910  0.07740  0.04550  Biso   1.000  H
  C105     1.0000 0.46760  0.16330  0.13420  Biso   1.000  C
  H90      1.0000 0.43980  0.18610  0.15710  Biso   1.000  H
  C106     1.0000 0.50230  0.11890  0.03440  Biso   1.000  C
  H91      1.0000 0.49890  0.11280  0.98790  Biso   1.000  H
  C107     1.0000 0.62880  0.00170  0.05620  Biso   1.000  C
  H92      1.0000 0.62070  0.03650  0.03640  Biso   1.000  H
  C108     1.0000 0.65170  0.94240  0.14990  Biso   1.000  C
  H93      1.0000 0.65870  0.93730  0.19610  Biso   1.000  H
  C109     1.0000 0.62490  0.95190  0.01900  Biso   1.000  C
  H94      1.0000 0.61580  0.95590  0.97310  Biso   1.000  H
  C110     1.0000 0.64750  0.89740  0.10650  Biso   1.000  C
  H95      1.0000 0.65560  0.86170  0.12390  Biso   1.000  H
  C111     1.0000 0.69560  0.20150  0.62360  Biso   1.000  C
  H96      1.0000 0.70320  0.16870  0.59900  Biso   1.000  H
  C112     1.0000 0.65040  0.20190  0.67240  Biso   1.000  C
  H97      1.0000 0.62770  0.16940  0.68020  Biso   1.000  H
  C113     1.0000 0.58090  0.20320  0.80600  Biso   1.000  C
  H98      1.0000 0.60630  0.17190  0.80210  Biso   1.000  H
  C114     1.0000 0.53440  0.20370  0.85230  Biso   1.000  C
  H99      1.0000 0.52710  0.17120  0.87750  Biso   1.000  H
  Co4      1.0000 0.62550  0.82291  0.98384  Biso   1.000  Co
  C115     1.0000 0.74010  0.83300  0.89870  Biso   1.000  C
  H100     1.0000 0.75240  0.80680  0.93120  Biso   1.000  H
  C116     1.0000 0.67130  0.89450  0.85880  Biso   1.000  C
  H101     1.0000 0.63390  0.91270  0.86360  Biso   1.000  H
  C117     1.0000 0.78200  0.84660  0.84630  Biso   1.000  C
  H102     1.0000 0.82000  0.82910  0.84410  Biso   1.000  H
  C118     1.0000 0.70830  0.90910  0.80630  Biso   1.000  C
  H103     1.0000 0.69490  0.93530  0.77450  Biso   1.000  H
  C119     1.0000 0.76550  0.88560  0.79950  Biso   1.000  C
  C120     1.0000 0.80650  0.90300  0.74390  Biso   1.000  C
  C121     1.0000 0.88180  0.90340  0.67010  Biso   1.000  C
  C122     1.0000 0.84830  0.95320  0.66440  Biso   1.000  C
  C123     1.0000 0.93730  0.88570  0.63680  Biso   1.000  C
  C124     1.0000 0.95300  0.83040  0.62540  Biso   1.000  C
  H104     1.0000 0.92770  0.80190  0.64180  Biso   1.000  H
  C125     1.0000 0.98260  0.92440  0.61680  Biso   1.000  C
  H105     1.0000 0.97640  0.96250  0.62570  Biso   1.000  H
  C126     1.0000 0.00400  0.81630  0.59110  Biso   1.000  C
  H106     1.0000 0.01050  0.77830  0.58180  Biso   1.000  H
  C127     1.0000 0.03490  0.90890  0.58530  Biso   1.000  C
  H107     1.0000 0.06410  0.93580  0.57390  Biso   1.000  H
  C128     1.0000 0.85520  0.00280  0.62160  Biso   1.000  C
  C129     1.0000 0.91210  0.02800  0.60870  Biso   1.000  C
  H108     1.0000 0.94770  0.01220  0.62620  Biso   1.000  H
  C130     1.0000 0.80480  0.02940  0.59030  Biso   1.000  C
  H109     1.0000 0.76600  0.01390  0.59500  Biso   1.000  H
  C131     1.0000 0.91480  0.07620  0.57000  Biso   1.000  C
  H110     1.0000 0.95260  0.09370  0.56460  Biso   1.000  H
  C132     1.0000 0.81240  0.07750  0.55330  Biso   1.000  C
  H111     1.0000 0.77810  0.09610  0.53660  Biso   1.000  H
  C133     1.0000 0.78480  0.79980  0.14720  Biso   1.000  C
  H112     1.0000 0.76340  0.83280  0.13800  Biso   1.000  H
  C134     1.0000 0.82980  0.80010  0.19540  Biso   1.000  C
  H113     1.0000 0.83930  0.83320  0.21840  Biso   1.000  H
  C135     1.0000 0.94000  0.79880  0.28330  Biso   1.000  C
  H114     1.0000 0.92950  0.83230  0.26180  Biso   1.000  H
  C136     1.0000 0.98460  0.79980  0.33190  Biso   1.000  C
  H115     1.0000 0.00320  0.83370  0.34370  Biso   1.000  H
  N16      1.0000 0.68707  0.85400  0.90450  Biso   1.000  N
  N17      1.0000 0.85390  0.87280  0.71990  Biso   1.000  N
  H116     1.0000 0.86470  0.83980  0.73360  Biso   1.000  H
  N18      1.0000 0.80030  0.95050  0.71040  Biso   1.000  N
  N19      1.0000 0.04477  0.85190  0.57010  Biso   1.000  N
  N20      1.0000 0.86762  0.09880  0.54030  Biso   1.000  N
  O7       1.0000 0.70197  0.79693  0.03820  Biso   1.000  O
  O8       1.0000 0.06734  0.70342  0.44030  Biso   1.000  O
  C137     1.0000 0.72500  0.81790  0.87780  Biso   1.000  C
  H117     1.0000 0.72850  0.78260  0.89800  Biso   1.000  H
  C138     1.0000 0.69290  0.90590  0.88120  Biso   1.000  C
  H118     1.0000 0.66800  0.93300  0.90130  Biso   1.000  H
  C139     1.0000 0.76170  0.82950  0.81920  Biso   1.000  C
  H119     1.0000 0.78180  0.80100  0.79560  Biso   1.000  H
  C140     1.0000 0.72970  0.92390  0.83270  Biso   1.000  C
  H120     1.0000 0.73120  0.96200  0.82140  Biso   1.000  H
  C141     1.0000 0.98120  0.85310  0.66660  Biso   1.000  C
  H121     1.0000 0.97560  0.84180  0.71140  Biso   1.000  H
  C142     1.0000 0.94870  0.89960  0.56810  Biso   1.000  C
  H122     1.0000 0.92090  0.92260  0.54550  Biso   1.000  H
  C143     1.0000 0.03240  0.83670  0.63420  Biso   1.000  C
  H123     1.0000 0.06020  0.81390  0.65710  Biso   1.000  H
  C144     1.0000 0.99770  0.88110  0.53440  Biso   1.000  C
  H124     1.0000 0.00110  0.88720  0.48790  Biso   1.000  H
  C145     1.0000 0.87120  0.99830  0.55620  Biso   1.000  C
  H125     1.0000 0.87930  0.96350  0.53640  Biso   1.000  H
  C146     1.0000 0.84830  0.05760  0.64990  Biso   1.000  C
  H126     1.0000 0.84130  0.06270  0.69610  Biso   1.000  H
  C147     1.0000 0.87510  0.04810  0.51900  Biso   1.000  C
  H127     1.0000 0.88420  0.04410  0.47310  Biso   1.000  H
  C148     1.0000 0.85250  0.10260  0.60650  Biso   1.000  C
  H128     1.0000 0.84440  0.13830  0.62390  Biso   1.000  H
  C149     1.0000 0.80440  0.79850  0.12360  Biso   1.000  C
  H129     1.0000 0.79680  0.83130  0.09900  Biso   1.000  H
  C150     1.0000 0.84960  0.79810  0.17240  Biso   1.000  C
  H130     1.0000 0.87230  0.83060  0.18020  Biso   1.000  H
  C151     1.0000 0.91910  0.79680  0.30600  Biso   1.000  C
  H131     1.0000 0.89370  0.82810  0.30210  Biso   1.000  H
  C152     1.0000 0.96560  0.79630  0.35230  Biso   1.000  C
  H132     1.0000 0.97290  0.82880  0.37750  Biso   1.000  H
  Co5      1.0000 0.87450  0.32291  0.48384  Biso   1.000  Co
  C153     1.0000 0.75990  0.33300  0.39870  Biso   1.000  C
  H133     1.0000 0.74760  0.30680  0.43120  Biso   1.000  H
  C154     1.0000 0.82870  0.39450  0.35880  Biso   1.000  C
  H134     1.0000 0.86610  0.41270  0.36360  Biso   1.000  H
  C155     1.0000 0.71800  0.34660  0.34630  Biso   1.000  C
  H135     1.0000 0.68000  0.32910  0.34410  Biso   1.000  H
  C156     1.0000 0.79170  0.40910  0.30630  Biso   1.000  C
  H136     1.0000 0.80510  0.43530  0.27450  Biso   1.000  H
  C157     1.0000 0.73450  0.38560  0.29950  Biso   1.000  C
  C158     1.0000 0.69350  0.40300  0.24390  Biso   1.000  C
  C159     1.0000 0.61820  0.40340  0.17010  Biso   1.000  C
  C160     1.0000 0.65170  0.45320  0.16440  Biso   1.000  C
  C161     1.0000 0.56270  0.38570  0.13680  Biso   1.000  C
  C162     1.0000 0.54700  0.33040  0.12540  Biso   1.000  C
  H137     1.0000 0.57230  0.30190  0.14180  Biso   1.000  H
  C163     1.0000 0.51740  0.42440  0.11680  Biso   1.000  C
  H138     1.0000 0.52360  0.46250  0.12570  Biso   1.000  H
  C164     1.0000 0.49600  0.31630  0.09110  Biso   1.000  C
  H139     1.0000 0.48950  0.27830  0.08180  Biso   1.000  H
  C165     1.0000 0.46510  0.40890  0.08530  Biso   1.000  C
  H140     1.0000 0.43590  0.43580  0.07390  Biso   1.000  H
  C166     1.0000 0.64480  0.50280  0.12160  Biso   1.000  C
  C167     1.0000 0.58790  0.52800  0.10870  Biso   1.000  C
  H141     1.0000 0.55230  0.51220  0.12620  Biso   1.000  H
  C168     1.0000 0.69520  0.52940  0.09030  Biso   1.000  C
  H142     1.0000 0.73400  0.51390  0.09500  Biso   1.000  H
  C169     1.0000 0.58520  0.57620  0.07000  Biso   1.000  C
  H143     1.0000 0.54740  0.59370  0.06460  Biso   1.000  H
  C170     1.0000 0.68760  0.57750  0.05330  Biso   1.000  C
  H144     1.0000 0.72190  0.59610  0.03660  Biso   1.000  H
  C171     1.0000 0.71520  0.29980  0.64720  Biso   1.000  C
  H145     1.0000 0.73660  0.33280  0.63800  Biso   1.000  H
  C172     1.0000 0.67020  0.30010  0.69540  Biso   1.000  C
  H146     1.0000 0.66070  0.33320  0.71840  Biso   1.000  H
  C173     1.0000 0.56000  0.29880  0.78330  Biso   1.000  C
  H147     1.0000 0.57050  0.33230  0.76180  Biso   1.000  H
  C174     1.0000 0.51540  0.29980  0.83190  Biso   1.000  C
  H148     1.0000 0.49680  0.33370  0.84370  Biso   1.000  H
  N21      1.0000 0.81293  0.35400  0.40450  Biso   1.000  N
  N22      1.0000 0.64610  0.37280  0.21990  Biso   1.000  N
  H149     1.0000 0.63530  0.33980  0.23360  Biso   1.000  H
  N23      1.0000 0.69970  0.45050  0.21040  Biso   1.000  N
  N24      1.0000 0.45523  0.35190  0.07010  Biso   1.000  N
  N25      1.0000 0.63238  0.59880  0.04030  Biso   1.000  N
  O9       1.0000 0.79803  0.29693  0.53820  Biso   1.000  O
  O10      1.0000 0.43266  0.20342  0.94030  Biso   1.000  O
  C175     1.0000 0.77500  0.31790  0.37780  Biso   1.000  C
  H150     1.0000 0.77150  0.28260  0.39800  Biso   1.000  H
  C176     1.0000 0.80710  0.40590  0.38120  Biso   1.000  C
  H151     1.0000 0.83200  0.43300  0.40130  Biso   1.000  H
  C177     1.0000 0.73830  0.32950  0.31920  Biso   1.000  C
  H152     1.0000 0.71820  0.30100  0.29560  Biso   1.000  H
  C178     1.0000 0.77030  0.42390  0.33270  Biso   1.000  C
  H153     1.0000 0.76880  0.46200  0.32140  Biso   1.000  H
  C179     1.0000 0.51880  0.35310  0.16660  Biso   1.000  C
  H154     1.0000 0.52440  0.34180  0.21140  Biso   1.000  H
  C180     1.0000 0.55130  0.39960  0.06810  Biso   1.000  C
  H155     1.0000 0.57910  0.42260  0.04550  Biso   1.000  H
  C181     1.0000 0.46760  0.33670  0.13420  Biso   1.000  C
  H156     1.0000 0.43980  0.31390  0.15710  Biso   1.000  H
  C182     1.0000 0.50230  0.38110  0.03440  Biso   1.000  C
  H157     1.0000 0.49890  0.38720  0.98790  Biso   1.000  H
  C183     1.0000 0.62880  0.49830  0.05620  Biso   1.000  C
  H158     1.0000 0.62070  0.46350  0.03640  Biso   1.000  H
  C184     1.0000 0.65170  0.55760  0.14990  Biso   1.000  C
  H159     1.0000 0.65870  0.56270  0.19610  Biso   1.000  H
  C185     1.0000 0.62490  0.54810  0.01900  Biso   1.000  C
  H160     1.0000 0.61580  0.54410  0.97310  Biso   1.000  H
  C186     1.0000 0.64750  0.60260  0.10650  Biso   1.000  C
  H161     1.0000 0.65560  0.63830  0.12390  Biso   1.000  H
  C187     1.0000 0.69560  0.29850  0.62360  Biso   1.000  C
  H162     1.0000 0.70320  0.33130  0.59900  Biso   1.000  H
  C188     1.0000 0.65040  0.29810  0.67240  Biso   1.000  C
  H163     1.0000 0.62770  0.33060  0.68020  Biso   1.000  H
  C189     1.0000 0.58090  0.29680  0.80600  Biso   1.000  C
  H164     1.0000 0.60630  0.32810  0.80210  Biso   1.000  H
  C190     1.0000 0.53440  0.29630  0.85230  Biso   1.000  C
  H165     1.0000 0.52710  0.32880  0.87750  Biso   1.000  H
  Co6      1.0000 0.62550  0.67709  0.98384  Biso   1.000  Co
  C191     1.0000 0.74010  0.66700  0.89870  Biso   1.000  C
  H166     1.0000 0.75240  0.69320  0.93120  Biso   1.000  H
  C192     1.0000 0.67130  0.60550  0.85880  Biso   1.000  C
  H167     1.0000 0.63390  0.58730  0.86360  Biso   1.000  H
  C193     1.0000 0.78200  0.65340  0.84630  Biso   1.000  C
  H168     1.0000 0.82000  0.67090  0.84410  Biso   1.000  H
  C194     1.0000 0.70830  0.59090  0.80630  Biso   1.000  C
  H169     1.0000 0.69490  0.56470  0.77450  Biso   1.000  H
  C195     1.0000 0.76550  0.61440  0.79950  Biso   1.000  C
  C196     1.0000 0.80650  0.59700  0.74390  Biso   1.000  C
  C197     1.0000 0.88180  0.59660  0.67010  Biso   1.000  C
  C198     1.0000 0.84830  0.54680  0.66440  Biso   1.000  C
  C199     1.0000 0.93730  0.61430  0.63680  Biso   1.000  C
  C200     1.0000 0.95300  0.66960  0.62540  Biso   1.000  C
  H170     1.0000 0.92770  0.69810  0.64180  Biso   1.000  H
  C201     1.0000 0.98260  0.57560  0.61680  Biso   1.000  C
  H171     1.0000 0.97640  0.53750  0.62570  Biso   1.000  H
  C202     1.0000 0.00400  0.68370  0.59110  Biso   1.000  C
  H172     1.0000 0.01050  0.72170  0.58180  Biso   1.000  H
  C203     1.0000 0.03490  0.59110  0.58530  Biso   1.000  C
  H173     1.0000 0.06410  0.56420  0.57390  Biso   1.000  H
  C204     1.0000 0.85520  0.49720  0.62160  Biso   1.000  C
  C205     1.0000 0.91210  0.47200  0.60870  Biso   1.000  C
  H174     1.0000 0.94770  0.48780  0.62620  Biso   1.000  H
  C206     1.0000 0.80480  0.47060  0.59030  Biso   1.000  C
  H175     1.0000 0.76600  0.48610  0.59500  Biso   1.000  H
  C207     1.0000 0.91480  0.42380  0.57000  Biso   1.000  C
  H176     1.0000 0.95260  0.40630  0.56460  Biso   1.000  H
  C208     1.0000 0.81240  0.42250  0.55330  Biso   1.000  C
  H177     1.0000 0.77810  0.40390  0.53660  Biso   1.000  H
  C209     1.0000 0.78480  0.70020  0.14720  Biso   1.000  C
  H178     1.0000 0.76340  0.66720  0.13800  Biso   1.000  H
  C210     1.0000 0.82980  0.69990  0.19540  Biso   1.000  C
  H179     1.0000 0.83930  0.66680  0.21840  Biso   1.000  H
  C211     1.0000 0.94000  0.70120  0.28330  Biso   1.000  C
  H180     1.0000 0.92950  0.66770  0.26180  Biso   1.000  H
  C212     1.0000 0.98460  0.70020  0.33190  Biso   1.000  C
  H181     1.0000 0.00320  0.66630  0.34370  Biso   1.000  H
  N26      1.0000 0.68707  0.64600  0.90450  Biso   1.000  N
  N27      1.0000 0.85390  0.62720  0.71990  Biso   1.000  N
  H182     1.0000 0.86470  0.66020  0.73360  Biso   1.000  H
  N28      1.0000 0.80030  0.54950  0.71040  Biso   1.000  N
  N29      1.0000 0.04477  0.64810  0.57010  Biso   1.000  N
  N30      1.0000 0.86762  0.40120  0.54030  Biso   1.000  N
  O11      1.0000 0.70197  0.70307  0.03820  Biso   1.000  O
  O12      1.0000 0.06734  0.79658  0.44030  Biso   1.000  O
  C213     1.0000 0.72500  0.68210  0.87780  Biso   1.000  C
  H183     1.0000 0.72850  0.71740  0.89800  Biso   1.000  H
  C214     1.0000 0.69290  0.59410  0.88120  Biso   1.000  C
  H184     1.0000 0.66800  0.56700  0.90130  Biso   1.000  H
  C215     1.0000 0.76170  0.67050  0.81920  Biso   1.000  C
  H185     1.0000 0.78180  0.69900  0.79560  Biso   1.000  H
  C216     1.0000 0.72970  0.57610  0.83270  Biso   1.000  C
  H186     1.0000 0.73120  0.53800  0.82140  Biso   1.000  H
  C217     1.0000 0.98120  0.64690  0.66660  Biso   1.000  C
  H187     1.0000 0.97560  0.65820  0.71140  Biso   1.000  H
  C218     1.0000 0.94870  0.60040  0.56810  Biso   1.000  C
  H188     1.0000 0.92090  0.57740  0.54550  Biso   1.000  H
  C219     1.0000 0.03240  0.66330  0.63420  Biso   1.000  C
  H189     1.0000 0.06020  0.68610  0.65710  Biso   1.000  H
  C220     1.0000 0.99770  0.61890  0.53440  Biso   1.000  C
  H190     1.0000 0.00110  0.61280  0.48790  Biso   1.000  H
  C221     1.0000 0.87120  0.50170  0.55620  Biso   1.000  C
  H191     1.0000 0.87930  0.53650  0.53640  Biso   1.000  H
  C222     1.0000 0.84830  0.44240  0.64990  Biso   1.000  C
  H192     1.0000 0.84130  0.43730  0.69610  Biso   1.000  H
  C223     1.0000 0.87510  0.45190  0.51900  Biso   1.000  C
  H193     1.0000 0.88420  0.45590  0.47310  Biso   1.000  H
  C224     1.0000 0.85250  0.39740  0.60650  Biso   1.000  C
  H194     1.0000 0.84440  0.36170  0.62390  Biso   1.000  H
  C225     1.0000 0.80440  0.70150  0.12360  Biso   1.000  C
  H195     1.0000 0.79680  0.66870  0.09900  Biso   1.000  H
  C226     1.0000 0.84960  0.70190  0.17240  Biso   1.000  C
  H196     1.0000 0.87230  0.66940  0.18020  Biso   1.000  H
  C227     1.0000 0.91910  0.70320  0.30600  Biso   1.000  C
  H197     1.0000 0.89370  0.67190  0.30210  Biso   1.000  H
  C228     1.0000 0.96560  0.70370  0.35230  Biso   1.000  C
  H198     1.0000 0.97290  0.67120  0.37750  Biso   1.000  H
  Co7      1.0000 0.12550  0.82291  0.51616  Biso   1.000  Co
  C229     1.0000 0.24010  0.83300  0.60130  Biso   1.000  C
  H199     1.0000 0.25240  0.80680  0.56880  Biso   1.000  H
  C230     1.0000 0.17130  0.89450  0.64120  Biso   1.000  C
  H200     1.0000 0.13390  0.91270  0.63640  Biso   1.000  H
  C231     1.0000 0.28200  0.84660  0.65370  Biso   1.000  C
  H201     1.0000 0.32000  0.82910  0.65590  Biso   1.000  H
  C232     1.0000 0.20830  0.90910  0.69370  Biso   1.000  C
  H202     1.0000 0.19490  0.93530  0.72550  Biso   1.000  H
  C233     1.0000 0.26550  0.88560  0.70050  Biso   1.000  C
  C234     1.0000 0.30650  0.90300  0.75610  Biso   1.000  C
  C235     1.0000 0.38180  0.90340  0.82990  Biso   1.000  C
  C236     1.0000 0.34830  0.95320  0.83560  Biso   1.000  C
  C237     1.0000 0.43730  0.88570  0.86320  Biso   1.000  C
  C238     1.0000 0.45300  0.83040  0.87460  Biso   1.000  C
  H203     1.0000 0.42770  0.80190  0.85820  Biso   1.000  H
  C239     1.0000 0.48260  0.92440  0.88320  Biso   1.000  C
  H204     1.0000 0.47640  0.96250  0.87430  Biso   1.000  H
  C240     1.0000 0.50400  0.81630  0.90890  Biso   1.000  C
  H205     1.0000 0.51050  0.77830  0.91820  Biso   1.000  H
  C241     1.0000 0.53490  0.90890  0.91470  Biso   1.000  C
  H206     1.0000 0.56410  0.93580  0.92610  Biso   1.000  H
  C242     1.0000 0.35520  0.00280  0.87840  Biso   1.000  C
  C243     1.0000 0.41210  0.02800  0.89130  Biso   1.000  C
  H207     1.0000 0.44770  0.01220  0.87380  Biso   1.000  H
  C244     1.0000 0.30480  0.02940  0.90970  Biso   1.000  C
  H208     1.0000 0.26600  0.01390  0.90500  Biso   1.000  H
  C245     1.0000 0.41480  0.07620  0.93000  Biso   1.000  C
  H209     1.0000 0.45260  0.09370  0.93540  Biso   1.000  H
  C246     1.0000 0.31240  0.07750  0.94670  Biso   1.000  C
  H210     1.0000 0.27810  0.09610  0.96340  Biso   1.000  H
  C247     1.0000 0.28480  0.79980  0.35280  Biso   1.000  C
  H211     1.0000 0.26340  0.83280  0.36200  Biso   1.000  H
  C248     1.0000 0.32980  0.80010  0.30460  Biso   1.000  C
  H212     1.0000 0.33930  0.83320  0.28160  Biso   1.000  H
  C249     1.0000 0.44000  0.79880  0.21670  Biso   1.000  C
  H213     1.0000 0.42950  0.83230  0.23820  Biso   1.000  H
  C250     1.0000 0.48460  0.79980  0.16810  Biso   1.000  C
  H214     1.0000 0.50320  0.83370  0.15630  Biso   1.000  H
  N31      1.0000 0.18707  0.85400  0.59550  Biso   1.000  N
  N32      1.0000 0.35390  0.87280  0.78010  Biso   1.000  N
  H215     1.0000 0.36470  0.83980  0.76640  Biso   1.000  H
  N33      1.0000 0.30030  0.95050  0.78960  Biso   1.000  N
  N34      1.0000 0.54477  0.85190  0.92990  Biso   1.000  N
  N35      1.0000 0.36762  0.09880  0.95970  Biso   1.000  N
  O13      1.0000 0.20197  0.79693  0.46180  Biso   1.000  O
  O14      1.0000 0.56734  0.70342  0.05970  Biso   1.000  O
  C251     1.0000 0.22500  0.81790  0.62220  Biso   1.000  C
  H216     1.0000 0.22850  0.78260  0.60200  Biso   1.000  H
  C252     1.0000 0.19290  0.90590  0.61880  Biso   1.000  C
  H217     1.0000 0.16800  0.93300  0.59870  Biso   1.000  H
  C253     1.0000 0.26170  0.82950  0.68080  Biso   1.000  C
  H218     1.0000 0.28180  0.80100  0.70440  Biso   1.000  H
  C254     1.0000 0.22970  0.92390  0.66730  Biso   1.000  C
  H219     1.0000 0.23120  0.96200  0.67860  Biso   1.000  H
  C255     1.0000 0.48120  0.85310  0.83340  Biso   1.000  C
  H220     1.0000 0.47560  0.84180  0.78860  Biso   1.000  H
  C256     1.0000 0.44870  0.89960  0.93190  Biso   1.000  C
  H221     1.0000 0.42090  0.92260  0.95450  Biso   1.000  H
  C257     1.0000 0.53240  0.83670  0.86580  Biso   1.000  C
  H222     1.0000 0.56020  0.81390  0.84290  Biso   1.000  H
  C258     1.0000 0.49770  0.88110  0.96560  Biso   1.000  C
  H223     1.0000 0.50110  0.88720  0.01210  Biso   1.000  H
  C259     1.0000 0.37120  0.99830  0.94380  Biso   1.000  C
  H224     1.0000 0.37930  0.96350  0.96360  Biso   1.000  H
  C260     1.0000 0.34830  0.05760  0.85010  Biso   1.000  C
  H225     1.0000 0.34130  0.06270  0.80390  Biso   1.000  H
  C261     1.0000 0.37510  0.04810  0.98100  Biso   1.000  C
  H226     1.0000 0.38420  0.04410  0.02690  Biso   1.000  H
  C262     1.0000 0.35250  0.10260  0.89350  Biso   1.000  C
  H227     1.0000 0.34440  0.13830  0.87610  Biso   1.000  H
  C263     1.0000 0.30440  0.79850  0.37640  Biso   1.000  C
  H228     1.0000 0.29680  0.83130  0.40100  Biso   1.000  H
  C264     1.0000 0.34960  0.79810  0.32760  Biso   1.000  C
  H229     1.0000 0.37230  0.83060  0.31980  Biso   1.000  H
  C265     1.0000 0.41910  0.79680  0.19400  Biso   1.000  C
  H230     1.0000 0.39370  0.82810  0.19790  Biso   1.000  H
  C266     1.0000 0.46560  0.79630  0.14770  Biso   1.000  C
  H231     1.0000 0.47290  0.82880  0.12250  Biso   1.000  H
  Co8      1.0000 0.37450  0.17709  0.01616  Biso   1.000  Co
  C267     1.0000 0.25990  0.16700  0.10130  Biso   1.000  C
  H232     1.0000 0.24760  0.19320  0.06880  Biso   1.000  H
  C268     1.0000 0.32870  0.10550  0.14120  Biso   1.000  C
  H233     1.0000 0.36610  0.08730  0.13640  Biso   1.000  H
  C269     1.0000 0.21800  0.15340  0.15370  Biso   1.000  C
  H234     1.0000 0.18000  0.17090  0.15590  Biso   1.000  H
  C270     1.0000 0.29170  0.09090  0.19370  Biso   1.000  C
  H235     1.0000 0.30510  0.06470  0.22550  Biso   1.000  H
  C271     1.0000 0.23450  0.11440  0.20050  Biso   1.000  C
  C272     1.0000 0.19350  0.09700  0.25610  Biso   1.000  C
  C273     1.0000 0.11820  0.09660  0.32990  Biso   1.000  C
  C274     1.0000 0.15170  0.04680  0.33560  Biso   1.000  C
  C275     1.0000 0.06270  0.11430  0.36320  Biso   1.000  C
  C276     1.0000 0.04700  0.16960  0.37460  Biso   1.000  C
  H236     1.0000 0.07230  0.19810  0.35820  Biso   1.000  H
  C277     1.0000 0.01740  0.07560  0.38320  Biso   1.000  C
  H237     1.0000 0.02360  0.03750  0.37430  Biso   1.000  H
  C278     1.0000 0.99600  0.18370  0.40890  Biso   1.000  C
  H238     1.0000 0.98950  0.22170  0.41820  Biso   1.000  H
  C279     1.0000 0.96510  0.09110  0.41470  Biso   1.000  C
  H239     1.0000 0.93590  0.06420  0.42610  Biso   1.000  H
  C280     1.0000 0.14480  0.99720  0.37840  Biso   1.000  C
  C281     1.0000 0.08790  0.97200  0.39130  Biso   1.000  C
  H240     1.0000 0.05230  0.98780  0.37380  Biso   1.000  H
  C282     1.0000 0.19520  0.97060  0.40970  Biso   1.000  C
  H241     1.0000 0.23400  0.98610  0.40500  Biso   1.000  H
  C283     1.0000 0.08520  0.92380  0.43000  Biso   1.000  C
  H242     1.0000 0.04740  0.90630  0.43540  Biso   1.000  H
  C284     1.0000 0.18760  0.92250  0.44670  Biso   1.000  C
  H243     1.0000 0.22190  0.90390  0.46340  Biso   1.000  H
  C285     1.0000 0.21520  0.20020  0.85280  Biso   1.000  C
  H244     1.0000 0.23660  0.16720  0.86200  Biso   1.000  H
  C286     1.0000 0.17020  0.19990  0.80460  Biso   1.000  C
  H245     1.0000 0.16070  0.16680  0.78160  Biso   1.000  H
  C287     1.0000 0.06000  0.20120  0.71670  Biso   1.000  C
  H246     1.0000 0.07050  0.16770  0.73820  Biso   1.000  H
  C288     1.0000 0.01540  0.20020  0.66810  Biso   1.000  C
  H247     1.0000 0.99680  0.16630  0.65630  Biso   1.000  H
  N36      1.0000 0.31293  0.14600  0.09550  Biso   1.000  N
  N37      1.0000 0.14610  0.12720  0.28010  Biso   1.000  N
  H248     1.0000 0.13530  0.16020  0.26640  Biso   1.000  H
  N38      1.0000 0.19970  0.04950  0.28960  Biso   1.000  N
  N39      1.0000 0.95523  0.14810  0.42990  Biso   1.000  N
  N40      1.0000 0.13238  0.90120  0.45970  Biso   1.000  N
  O15      1.0000 0.29803  0.20307  0.96180  Biso   1.000  O
  O16      1.0000 0.93266  0.29658  0.55970  Biso   1.000  O
  C289     1.0000 0.27500  0.18210  0.12220  Biso   1.000  C
  H249     1.0000 0.27150  0.21740  0.10200  Biso   1.000  H
  C290     1.0000 0.30710  0.09410  0.11880  Biso   1.000  C
  H250     1.0000 0.33200  0.06700  0.09870  Biso   1.000  H
  C291     1.0000 0.23830  0.17050  0.18080  Biso   1.000  C
  H251     1.0000 0.21820  0.19900  0.20440  Biso   1.000  H
  C292     1.0000 0.27030  0.07610  0.16730  Biso   1.000  C
  H252     1.0000 0.26880  0.03800  0.17860  Biso   1.000  H
  C293     1.0000 0.01880  0.14690  0.33340  Biso   1.000  C
  H253     1.0000 0.02440  0.15820  0.28860  Biso   1.000  H
  C294     1.0000 0.05130  0.10040  0.43190  Biso   1.000  C
  H254     1.0000 0.07910  0.07740  0.45450  Biso   1.000  H
  C295     1.0000 0.96760  0.16330  0.36580  Biso   1.000  C
  H255     1.0000 0.93980  0.18610  0.34290  Biso   1.000  H
  C296     1.0000 0.00230  0.11890  0.46560  Biso   1.000  C
  H256     1.0000 0.99890  0.11280  0.51210  Biso   1.000  H
  C297     1.0000 0.12880  0.00170  0.44380  Biso   1.000  C
  H257     1.0000 0.12070  0.03650  0.46360  Biso   1.000  H
  C298     1.0000 0.15170  0.94240  0.35010  Biso   1.000  C
  H258     1.0000 0.15870  0.93730  0.30390  Biso   1.000  H
  C299     1.0000 0.12490  0.95190  0.48100  Biso   1.000  C
  H259     1.0000 0.11580  0.95590  0.52690  Biso   1.000  H
  C300     1.0000 0.14750  0.89740  0.39350  Biso   1.000  C
  H260     1.0000 0.15560  0.86170  0.37610  Biso   1.000  H
  C301     1.0000 0.19560  0.20150  0.87640  Biso   1.000  C
  H261     1.0000 0.20320  0.16870  0.90100  Biso   1.000  H
  C302     1.0000 0.15040  0.20190  0.82760  Biso   1.000  C
  H262     1.0000 0.12770  0.16940  0.81980  Biso   1.000  H
  C303     1.0000 0.08090  0.20320  0.69400  Biso   1.000  C
  H263     1.0000 0.10630  0.17190  0.69790  Biso   1.000  H
  C304     1.0000 0.03440  0.20370  0.64770  Biso   1.000  C
  H264     1.0000 0.02710  0.17120  0.62250  Biso   1.000  H
  C305     1.0000 0.21990  0.75000  0.44240  Biso   1.000  C
  C306     1.0000 0.27010  0.75000  0.38890  Biso   1.000  C
  C307     1.0000 0.36170  0.75000  0.29010  Biso   1.000  C
  C308     1.0000 0.41020  0.75000  0.23490  Biso   1.000  C
  C309     1.0000 0.50210  0.75000  0.13640  Biso   1.000  C
  C310     1.0000 0.55000  0.75000  0.08120  Biso   1.000  C
  O17      1.0000 0.12077  0.75000  0.56860  Biso   1.000  O
  C311     1.0000 0.28010  0.25000  0.94240  Biso   1.000  C
  C312     1.0000 0.22990  0.25000  0.88890  Biso   1.000  C
  C313     1.0000 0.13830  0.25000  0.79010  Biso   1.000  C
  C314     1.0000 0.08980  0.25000  0.73490  Biso   1.000  C
  C315     1.0000 0.99790  0.25000  0.63640  Biso   1.000  C
  C316     1.0000 0.95000  0.25000  0.58120  Biso   1.000  C
  O18      1.0000 0.37923  0.25000  0.06860  Biso   1.000  O
  C317     1.0000 0.78010  0.25000  0.55760  Biso   1.000  C
  C318     1.0000 0.72990  0.25000  0.61110  Biso   1.000  C
  C319     1.0000 0.63830  0.25000  0.70990  Biso   1.000  C
  C320     1.0000 0.58980  0.25000  0.76510  Biso   1.000  C
  C321     1.0000 0.49790  0.25000  0.86360  Biso   1.000  C
  C322     1.0000 0.45000  0.25000  0.91880  Biso   1.000  C
  O19      1.0000 0.87923  0.25000  0.43140  Biso   1.000  O
  C323     1.0000 0.71990  0.75000  0.05760  Biso   1.000  C
  C324     1.0000 0.77010  0.75000  0.11110  Biso   1.000  C
  C325     1.0000 0.86170  0.75000  0.20990  Biso   1.000  C
  C326     1.0000 0.91020  0.75000  0.26510  Biso   1.000  C
  C327     1.0000 0.00210  0.75000  0.36360  Biso   1.000  C
  C328     1.0000 0.05000  0.75000  0.41880  Biso   1.000  C
  O20      1.0000 0.62077  0.75000  0.93140  Biso   1.000  O
