data_image0
_cell_length_a       21.4817
_cell_length_b       23.3867
_cell_length_c       19.8758
_cell_angle_alpha    90
_cell_angle_beta     90
_cell_angle_gamma    90

_symmetry_space_group_name_H-M    "P 1"
_symmetry_int_tables_number       1

loop_
  _symmetry_equiv_pos_as_xyz
  'x, y, z'

loop_
  _atom_site_label
  _atom_site_occupancy
  _atom_site_fract_x
  _atom_site_fract_y
  _atom_site_fract_z
  _atom_site_thermal_displace_type
  _atom_site_B_iso_or_equiv
  _atom_site_type_symbol
  Ni1      1.0000 0.12714  0.32374  0.01604  Biso   1.000  Ni
  C1       1.0000 0.44900  0.39940  0.43180  Biso   1.000  C
  H1       1.0000 0.42030  0.42220  0.45420  Biso   1.000  H
  C2       1.0000 0.50050  0.38130  0.46450  Biso   1.000  C
  H2       1.0000 0.50450  0.38880  0.51020  Biso   1.000  H
  C3       1.0000 0.53610  0.33510  0.36910  Biso   1.000  C
  H3       1.0000 0.56500  0.31200  0.34730  Biso   1.000  H
  C4       1.0000 0.48270  0.35090  0.33490  Biso   1.000  C
  H4       1.0000 0.47690  0.33850  0.29090  Biso   1.000  H
  C5       1.0000 0.30120  0.52950  0.40810  Biso   1.000  C
  H5       1.0000 0.26140  0.51470  0.40210  Biso   1.000  H
  C6       1.0000 0.31150  0.57800  0.44660  Biso   1.000  C
  H6       1.0000 0.27700  0.59690  0.46410  Biso   1.000  H
  C7       1.0000 0.41440  0.57730  0.43220  Biso   1.000  C
  H7       1.0000 0.45250  0.59520  0.43930  Biso   1.000  H
  C8       1.0000 0.41340  0.52860  0.39210  Biso   1.000  C
  H8       1.0000 0.45010  0.51330  0.37500  Biso   1.000  H
  C9       1.0000 0.22910  0.31910  0.11660  Biso   1.000  C
  H9       1.0000 0.23610  0.28480  0.09400  Biso   1.000  H
  C10      1.0000 0.26350  0.33150  0.17610  Biso   1.000  C
  H10      1.0000 0.28400  0.30220  0.19880  Biso   1.000  H
  C11      1.0000 0.18830  0.40440  0.12010  Biso   1.000  C
  H11      1.0000 0.15920  0.43070  0.10450  Biso   1.000  H
  C12      1.0000 0.22800  0.42180  0.16960  Biso   1.000  C
  H12      1.0000 0.22830  0.45990  0.18280  Biso   1.000  H
  C13      1.0000 0.30280  0.29990  0.87200  Biso   1.000  C
  H13      1.0000 0.29140  0.33400  0.89260  Biso   1.000  H
  C14      1.0000 0.34780  0.30040  0.82400  Biso   1.000  C
  H14      1.0000 0.36670  0.33470  0.81210  Biso   1.000  H
  C15      1.0000 0.49150  0.20220  0.67250  Biso   1.000  C
  H15      1.0000 0.51420  0.16920  0.66360  Biso   1.000  H
  C16      1.0000 0.44740  0.20090  0.72190  Biso   1.000  C
  H16      1.0000 0.43990  0.16710  0.74520  Biso   1.000  H
  C17      1.0000 0.38234  0.40340  0.32840  Biso   1.000  C
  C18      1.0000 0.34840  0.45277  0.33450  Biso   1.000  C
  C19      1.0000 0.30768  0.40263  0.25450  Biso   1.000  C
  C20      1.0000 0.26664  0.38458  0.19940  Biso   1.000  C
  C21      1.0000 0.35501  0.50285  0.37770  Biso   1.000  C
  C22      1.0000 0.43847  0.38417  0.36430  Biso   1.000  C
  N1       1.0000 0.35554  0.37182  0.27800  Biso   1.000  N
  H17      1.0000 0.36720  0.33870  0.26420  Biso   1.000  H
  N2       1.0000 0.30107  0.45099  0.28720  Biso   1.000  N
  N3       1.0000 0.18802  0.35482  0.09353  Biso   1.000  N
  N4       1.0000 0.36631  0.59877  0.45997  Biso   1.000  N
  N5       1.0000 0.54761  0.35162  0.43147  Biso   1.000  N
  O1       1.0000 0.20382  0.29756  0.96274  Biso   1.000  O
  O2       1.0000 0.56859  0.20270  0.55845  Biso   1.000  O
  C23      1.0000 0.48330  0.42330  0.38260  Biso   1.000  C
  H18      1.0000 0.47770  0.46170  0.37240  Biso   1.000  H
  C24      1.0000 0.53600  0.40620  0.41550  Biso   1.000  C
  H19      1.0000 0.56510  0.43380  0.42750  Biso   1.000  H
  C25      1.0000 0.50410  0.31210  0.41380  Biso   1.000  C
  H20      1.0000 0.51060  0.27390  0.42460  Biso   1.000  H
  C26      1.0000 0.45080  0.32750  0.38030  Biso   1.000  C
  H21      1.0000 0.42230  0.29940  0.36810  Biso   1.000  H
  C27      1.0000 0.34630  0.55750  0.35220  Biso   1.000  C
  H22      1.0000 0.33650  0.56280  0.30710  Biso   1.000  H
  C28      1.0000 0.35210  0.60260  0.39340  Biso   1.000  C
  H23      1.0000 0.34600  0.63880  0.37540  Biso   1.000  H
  C29      1.0000 0.37380  0.54730  0.48240  Biso   1.000  C
  H24      1.0000 0.38320  0.54350  0.52780  Biso   1.000  H
  C30      1.0000 0.36910  0.49580  0.44460  Biso   1.000  C
  H25      1.0000 0.37510  0.46000  0.46380  Biso   1.000  H
  C31      1.0000 0.24440  0.33560  0.09970  Biso   1.000  C
  H26      1.0000 0.25930  0.31240  0.06530  Biso   1.000  H
  C32      1.0000 0.28310  0.34620  0.15120  Biso   1.000  C
  H27      1.0000 0.32110  0.32730  0.15390  Biso   1.000  H
  C33      1.0000 0.16910  0.39100  0.14450  Biso   1.000  C
  H28      1.0000 0.12840  0.40460  0.14340  Biso   1.000  H
  C34      1.0000 0.20610  0.40800  0.19600  Biso   1.000  C
  H29      1.0000 0.19220  0.43400  0.22800  Biso   1.000  H
  C35      1.0000 0.28470  0.29730  0.85190  Biso   1.000  C
  H30      1.0000 0.26070  0.32980  0.85890  Biso   1.000  H
  C36      1.0000 0.32930  0.29800  0.80340  Biso   1.000  C
  H31      1.0000 0.33540  0.33080  0.77760  Biso   1.000  H
  C37      1.0000 0.47090  0.20130  0.65070  Biso   1.000  C
  H32      1.0000 0.47960  0.16770  0.62760  Biso   1.000  H
  C38      1.0000 0.42490  0.20120  0.69970  Biso   1.000  C
  H33      1.0000 0.40170  0.16820  0.70730  Biso   1.000  H
  Ni2      1.0000 0.37286  0.67626  0.51604  Biso   1.000  Ni
  C39      1.0000 0.05100  0.60060  0.93180  Biso   1.000  C
  H34      1.0000 0.07970  0.57780  0.95420  Biso   1.000  H
  C40      1.0000 0.99950  0.61870  0.96450  Biso   1.000  C
  H35      1.0000 0.99550  0.61120  0.01020  Biso   1.000  H
  C41      1.0000 0.96390  0.66490  0.86910  Biso   1.000  C
  H36      1.0000 0.93500  0.68800  0.84730  Biso   1.000  H
  C42      1.0000 0.01730  0.64910  0.83490  Biso   1.000  C
  H37      1.0000 0.02310  0.66150  0.79090  Biso   1.000  H
  C43      1.0000 0.19880  0.47050  0.90810  Biso   1.000  C
  H38      1.0000 0.23860  0.48530  0.90210  Biso   1.000  H
  C44      1.0000 0.18850  0.42200  0.94660  Biso   1.000  C
  H39      1.0000 0.22300  0.40310  0.96410  Biso   1.000  H
  C45      1.0000 0.08560  0.42270  0.93220  Biso   1.000  C
  H40      1.0000 0.04750  0.40480  0.93930  Biso   1.000  H
  C46      1.0000 0.08660  0.47140  0.89210  Biso   1.000  C
  H41      1.0000 0.04990  0.48670  0.87500  Biso   1.000  H
  C47      1.0000 0.27090  0.68090  0.61660  Biso   1.000  C
  H42      1.0000 0.26390  0.71520  0.59400  Biso   1.000  H
  C48      1.0000 0.23650  0.66850  0.67610  Biso   1.000  C
  H43      1.0000 0.21600  0.69780  0.69880  Biso   1.000  H
  C49      1.0000 0.31170  0.59560  0.62010  Biso   1.000  C
  H44      1.0000 0.34080  0.56930  0.60450  Biso   1.000  H
  C50      1.0000 0.27200  0.57820  0.66960  Biso   1.000  C
  H45      1.0000 0.27170  0.54010  0.68280  Biso   1.000  H
  C51      1.0000 0.19720  0.70010  0.37200  Biso   1.000  C
  H46      1.0000 0.20860  0.66600  0.39260  Biso   1.000  H
  C52      1.0000 0.15220  0.69960  0.32400  Biso   1.000  C
  H47      1.0000 0.13330  0.66530  0.31210  Biso   1.000  H
  C53      1.0000 0.00850  0.79780  0.17250  Biso   1.000  C
  H48      1.0000 0.98580  0.83080  0.16360  Biso   1.000  H
  C54      1.0000 0.05260  0.79910  0.22190  Biso   1.000  C
  H49      1.0000 0.06010  0.83290  0.24520  Biso   1.000  H
  C55      1.0000 0.11766  0.59660  0.82840  Biso   1.000  C
  C56      1.0000 0.15160  0.54723  0.83450  Biso   1.000  C
  C57      1.0000 0.19232  0.59737  0.75450  Biso   1.000  C
  C58      1.0000 0.23336  0.61542  0.69940  Biso   1.000  C
  C59      1.0000 0.14499  0.49715  0.87770  Biso   1.000  C
  C60      1.0000 0.06153  0.61583  0.86430  Biso   1.000  C
  N6       1.0000 0.14446  0.62818  0.77800  Biso   1.000  N
  H50      1.0000 0.13280  0.66130  0.76420  Biso   1.000  H
  N7       1.0000 0.19893  0.54901  0.78720  Biso   1.000  N
  N8       1.0000 0.31198  0.64518  0.59353  Biso   1.000  N
  N9       1.0000 0.13369  0.40123  0.95997  Biso   1.000  N
  N10      1.0000 0.95239  0.64838  0.93147  Biso   1.000  N
  O3       1.0000 0.29618  0.70244  0.46274  Biso   1.000  O
  O4       1.0000 0.93141  0.79730  0.05845  Biso   1.000  O
  C61      1.0000 0.01670  0.57670  0.88260  Biso   1.000  C
  H51      1.0000 0.02230  0.53830  0.87240  Biso   1.000  H
  C62      1.0000 0.96400  0.59380  0.91550  Biso   1.000  C
  H52      1.0000 0.93490  0.56620  0.92750  Biso   1.000  H
  C63      1.0000 0.99590  0.68790  0.91380  Biso   1.000  C
  H53      1.0000 0.98940  0.72610  0.92460  Biso   1.000  H
  C64      1.0000 0.04920  0.67250  0.88030  Biso   1.000  C
  H54      1.0000 0.07770  0.70060  0.86810  Biso   1.000  H
  C65      1.0000 0.15370  0.44250  0.85220  Biso   1.000  C
  H55      1.0000 0.16350  0.43720  0.80710  Biso   1.000  H
  C66      1.0000 0.14790  0.39740  0.89340  Biso   1.000  C
  H56      1.0000 0.15400  0.36120  0.87540  Biso   1.000  H
  C67      1.0000 0.12620  0.45270  0.98240  Biso   1.000  C
  H57      1.0000 0.11680  0.45650  0.02780  Biso   1.000  H
  C68      1.0000 0.13090  0.50420  0.94460  Biso   1.000  C
  H58      1.0000 0.12490  0.54000  0.96380  Biso   1.000  H
  C69      1.0000 0.25560  0.66440  0.59970  Biso   1.000  C
  H59      1.0000 0.24070  0.68760  0.56530  Biso   1.000  H
  C70      1.0000 0.21690  0.65380  0.65120  Biso   1.000  C
  H60      1.0000 0.17890  0.67270  0.65390  Biso   1.000  H
  C71      1.0000 0.33090  0.60900  0.64450  Biso   1.000  C
  H61      1.0000 0.37160  0.59540  0.64340  Biso   1.000  H
  C72      1.0000 0.29390  0.59200  0.69600  Biso   1.000  C
  H62      1.0000 0.30780  0.56600  0.72800  Biso   1.000  H
  C73      1.0000 0.21530  0.70270  0.35190  Biso   1.000  C
  H63      1.0000 0.23930  0.67020  0.35890  Biso   1.000  H
  C74      1.0000 0.17070  0.70200  0.30340  Biso   1.000  C
  H64      1.0000 0.16460  0.66920  0.27760  Biso   1.000  H
  C75      1.0000 0.02910  0.79870  0.15070  Biso   1.000  C
  H65      1.0000 0.02040  0.83230  0.12760  Biso   1.000  H
  C76      1.0000 0.07510  0.79880  0.19970  Biso   1.000  C
  H66      1.0000 0.09830  0.83180  0.20730  Biso   1.000  H
  Ni3      1.0000 0.87286  0.82374  0.98396  Biso   1.000  Ni
  C77      1.0000 0.55100  0.89940  0.56820  Biso   1.000  C
  H67      1.0000 0.57970  0.92220  0.54580  Biso   1.000  H
  C78      1.0000 0.49950  0.88130  0.53550  Biso   1.000  C
  H68      1.0000 0.49550  0.88880  0.48980  Biso   1.000  H
  C79      1.0000 0.46390  0.83510  0.63090  Biso   1.000  C
  H69      1.0000 0.43500  0.81200  0.65270  Biso   1.000  H
  C80      1.0000 0.51730  0.85090  0.66510  Biso   1.000  C
  H70      1.0000 0.52310  0.83850  0.70910  Biso   1.000  H
  C81      1.0000 0.69880  0.02950  0.59190  Biso   1.000  C
  H71      1.0000 0.73860  0.01470  0.59790  Biso   1.000  H
  C82      1.0000 0.68850  0.07800  0.55340  Biso   1.000  C
  H72      1.0000 0.72300  0.09690  0.53590  Biso   1.000  H
  C83      1.0000 0.58560  0.07730  0.56780  Biso   1.000  C
  H73      1.0000 0.54750  0.09520  0.56070  Biso   1.000  H
  C84      1.0000 0.58660  0.02860  0.60790  Biso   1.000  C
  H74      1.0000 0.54990  0.01330  0.62500  Biso   1.000  H
  C85      1.0000 0.77090  0.81910  0.88340  Biso   1.000  C
  H75      1.0000 0.76390  0.78480  0.90600  Biso   1.000  H
  C86      1.0000 0.73650  0.83150  0.82390  Biso   1.000  C
  H76      1.0000 0.71600  0.80220  0.80120  Biso   1.000  H
  C87      1.0000 0.81170  0.90440  0.87990  Biso   1.000  C
  H77      1.0000 0.84080  0.93070  0.89550  Biso   1.000  H
  C88      1.0000 0.77200  0.92180  0.83040  Biso   1.000  C
  H78      1.0000 0.77170  0.95990  0.81720  Biso   1.000  H
  C89      1.0000 0.69720  0.79990  0.12800  Biso   1.000  C
  H79      1.0000 0.70860  0.83400  0.10740  Biso   1.000  H
  C90      1.0000 0.65220  0.80040  0.17600  Biso   1.000  C
  H80      1.0000 0.63330  0.83470  0.18790  Biso   1.000  H
  C91      1.0000 0.50850  0.70220  0.32750  Biso   1.000  C
  H81      1.0000 0.48580  0.66920  0.33640  Biso   1.000  H
  C92      1.0000 0.55260  0.70090  0.27810  Biso   1.000  C
  H82      1.0000 0.56010  0.66710  0.25480  Biso   1.000  H
  C93      1.0000 0.61766  0.90340  0.67160  Biso   1.000  C
  C94      1.0000 0.65160  0.95277  0.66550  Biso   1.000  C
  C95      1.0000 0.69232  0.90263  0.74550  Biso   1.000  C
  C96      1.0000 0.73336  0.88458  0.80060  Biso   1.000  C
  C97      1.0000 0.64499  0.00285  0.62230  Biso   1.000  C
  C98      1.0000 0.56153  0.88417  0.63570  Biso   1.000  C
  N11      1.0000 0.64446  0.87182  0.72200  Biso   1.000  N
  H83      1.0000 0.63280  0.83870  0.73580  Biso   1.000  H
  N12      1.0000 0.69893  0.95099  0.71280  Biso   1.000  N
  N13      1.0000 0.81198  0.85482  0.90647  Biso   1.000  N
  N14      1.0000 0.63369  0.09877  0.54003  Biso   1.000  N
  N15      1.0000 0.45239  0.85162  0.56853  Biso   1.000  N
  O5       1.0000 0.79618  0.79756  0.03726  Biso   1.000  O
  O6       1.0000 0.43141  0.70270  0.44155  Biso   1.000  O
  C99      1.0000 0.51670  0.92330  0.61740  Biso   1.000  C
  H84      1.0000 0.52230  0.96170  0.62760  Biso   1.000  H
  C100     1.0000 0.46400  0.90620  0.58450  Biso   1.000  C
  H85      1.0000 0.43490  0.93380  0.57250  Biso   1.000  H
  C101     1.0000 0.49590  0.81210  0.58620  Biso   1.000  C
  H86      1.0000 0.48940  0.77390  0.57540  Biso   1.000  H
  C102     1.0000 0.54920  0.82750  0.61970  Biso   1.000  C
  H87      1.0000 0.57770  0.79940  0.63190  Biso   1.000  H
  C103     1.0000 0.65370  0.05750  0.64780  Biso   1.000  C
  H88      1.0000 0.66350  0.06280  0.69290  Biso   1.000  H
  C104     1.0000 0.64790  0.10260  0.60660  Biso   1.000  C
  H89      1.0000 0.65400  0.13880  0.62460  Biso   1.000  H
  C105     1.0000 0.62620  0.04730  0.51760  Biso   1.000  C
  H90      1.0000 0.61680  0.04350  0.47220  Biso   1.000  H
  C106     1.0000 0.63090  0.99580  0.55540  Biso   1.000  C
  H91      1.0000 0.62490  0.96000  0.53620  Biso   1.000  H
  C107     1.0000 0.75560  0.83560  0.90030  Biso   1.000  C
  H92      1.0000 0.74070  0.81240  0.93470  Biso   1.000  H
  C108     1.0000 0.71690  0.84620  0.84880  Biso   1.000  C
  H93      1.0000 0.67890  0.82730  0.84610  Biso   1.000  H
  C109     1.0000 0.83090  0.89100  0.85550  Biso   1.000  C
  H94      1.0000 0.87160  0.90460  0.85660  Biso   1.000  H
  C110     1.0000 0.79390  0.90800  0.80400  Biso   1.000  C
  H95      1.0000 0.80780  0.93400  0.77200  Biso   1.000  H
  C111     1.0000 0.71530  0.79730  0.14810  Biso   1.000  C
  H96      1.0000 0.73930  0.82980  0.14110  Biso   1.000  H
  C112     1.0000 0.67070  0.79800  0.19660  Biso   1.000  C
  H97      1.0000 0.66460  0.83080  0.22240  Biso   1.000  H
  C113     1.0000 0.52910  0.70130  0.34930  Biso   1.000  C
  H98      1.0000 0.52040  0.66770  0.37240  Biso   1.000  H
  C114     1.0000 0.57510  0.70120  0.30030  Biso   1.000  C
  H99      1.0000 0.59830  0.66820  0.29270  Biso   1.000  H
  Ni4      1.0000 0.62714  0.17626  0.48396  Biso   1.000  Ni
  C115     1.0000 0.94900  0.10060  0.06820  Biso   1.000  C
  H100     1.0000 0.92030  0.07780  0.04580  Biso   1.000  H
  C116     1.0000 0.00050  0.11870  0.03550  Biso   1.000  C
  H101     1.0000 0.00450  0.11120  0.98980  Biso   1.000  H
  C117     1.0000 0.03610  0.16490  0.13090  Biso   1.000  C
  H102     1.0000 0.06500  0.18800  0.15270  Biso   1.000  H
  C118     1.0000 0.98270  0.14910  0.16510  Biso   1.000  C
  H103     1.0000 0.97690  0.16150  0.20910  Biso   1.000  H
  C119     1.0000 0.80120  0.97050  0.09190  Biso   1.000  C
  H104     1.0000 0.76140  0.98530  0.09790  Biso   1.000  H
  C120     1.0000 0.81150  0.92200  0.05340  Biso   1.000  C
  H105     1.0000 0.77700  0.90310  0.03590  Biso   1.000  H
  C121     1.0000 0.91440  0.92270  0.06780  Biso   1.000  C
  H106     1.0000 0.95250  0.90480  0.06070  Biso   1.000  H
  C122     1.0000 0.91340  0.97140  0.10790  Biso   1.000  C
  H107     1.0000 0.95010  0.98670  0.12500  Biso   1.000  H
  C123     1.0000 0.72910  0.18090  0.38340  Biso   1.000  C
  H108     1.0000 0.73610  0.21520  0.40600  Biso   1.000  H
  C124     1.0000 0.76350  0.16850  0.32390  Biso   1.000  C
  H109     1.0000 0.78400  0.19780  0.30120  Biso   1.000  H
  C125     1.0000 0.68830  0.09560  0.37990  Biso   1.000  C
  H110     1.0000 0.65920  0.06930  0.39550  Biso   1.000  H
  C126     1.0000 0.72800  0.07820  0.33040  Biso   1.000  C
  H111     1.0000 0.72830  0.04010  0.31720  Biso   1.000  H
  C127     1.0000 0.80280  0.20010  0.62800  Biso   1.000  C
  H112     1.0000 0.79140  0.16600  0.60740  Biso   1.000  H
  C128     1.0000 0.84780  0.19960  0.67600  Biso   1.000  C
  H113     1.0000 0.86670  0.16530  0.68790  Biso   1.000  H
  C129     1.0000 0.99150  0.29780  0.82750  Biso   1.000  C
  H114     1.0000 0.01420  0.33080  0.83640  Biso   1.000  H
  C130     1.0000 0.94740  0.29910  0.77810  Biso   1.000  C
  H115     1.0000 0.93990  0.33290  0.75480  Biso   1.000  H
  C131     1.0000 0.88234  0.09660  0.17160  Biso   1.000  C
  C132     1.0000 0.84840  0.04723  0.16550  Biso   1.000  C
  C133     1.0000 0.80768  0.09737  0.24550  Biso   1.000  C
  C134     1.0000 0.76664  0.11542  0.30060  Biso   1.000  C
  C135     1.0000 0.85501  0.99715  0.12230  Biso   1.000  C
  C136     1.0000 0.93847  0.11583  0.13570  Biso   1.000  C
  N16      1.0000 0.85554  0.12818  0.22200  Biso   1.000  N
  H116     1.0000 0.86720  0.16130  0.23580  Biso   1.000  H
  N17      1.0000 0.80107  0.04901  0.21280  Biso   1.000  N
  N18      1.0000 0.68802  0.14518  0.40647  Biso   1.000  N
  N19      1.0000 0.86631  0.90123  0.04003  Biso   1.000  N
  N20      1.0000 0.04761  0.14838  0.06853  Biso   1.000  N
  O7       1.0000 0.70382  0.20244  0.53726  Biso   1.000  O
  O8       1.0000 0.06859  0.29730  0.94155  Biso   1.000  O
  C137     1.0000 0.98330  0.07670  0.11740  Biso   1.000  C
  H117     1.0000 0.97770  0.03830  0.12760  Biso   1.000  H
  C138     1.0000 0.03600  0.09380  0.08450  Biso   1.000  C
  H118     1.0000 0.06510  0.06620  0.07250  Biso   1.000  H
  C139     1.0000 0.00410  0.18790  0.08620  Biso   1.000  C
  H119     1.0000 0.01060  0.22610  0.07540  Biso   1.000  H
  C140     1.0000 0.95080  0.17250  0.11970  Biso   1.000  C
  H120     1.0000 0.92230  0.20060  0.13190  Biso   1.000  H
  C141     1.0000 0.84630  0.94250  0.14780  Biso   1.000  C
  H121     1.0000 0.83650  0.93720  0.19290  Biso   1.000  H
  C142     1.0000 0.85210  0.89740  0.10660  Biso   1.000  C
  H122     1.0000 0.84600  0.86120  0.12460  Biso   1.000  H
  C143     1.0000 0.87380  0.95270  0.01760  Biso   1.000  C
  H123     1.0000 0.88320  0.95650  0.97220  Biso   1.000  H
  C144     1.0000 0.86910  0.00420  0.05540  Biso   1.000  C
  H124     1.0000 0.87510  0.04000  0.03620  Biso   1.000  H
  C145     1.0000 0.74440  0.16440  0.40030  Biso   1.000  C
  H125     1.0000 0.75930  0.18760  0.43470  Biso   1.000  H
  C146     1.0000 0.78310  0.15380  0.34880  Biso   1.000  C
  H126     1.0000 0.82110  0.17270  0.34610  Biso   1.000  H
  C147     1.0000 0.66910  0.10900  0.35550  Biso   1.000  C
  H127     1.0000 0.62840  0.09540  0.35660  Biso   1.000  H
  C148     1.0000 0.70610  0.09200  0.30400  Biso   1.000  C
  H128     1.0000 0.69220  0.06600  0.27200  Biso   1.000  H
  C149     1.0000 0.78470  0.20270  0.64810  Biso   1.000  C
  H129     1.0000 0.76070  0.17020  0.64110  Biso   1.000  H
  C150     1.0000 0.82930  0.20200  0.69660  Biso   1.000  C
  H130     1.0000 0.83540  0.16920  0.72240  Biso   1.000  H
  C151     1.0000 0.97090  0.29870  0.84930  Biso   1.000  C
  H131     1.0000 0.97960  0.33230  0.87240  Biso   1.000  H
  C152     1.0000 0.92490  0.29880  0.80030  Biso   1.000  C
  H132     1.0000 0.90170  0.33180  0.79270  Biso   1.000  H
  Ni5      1.0000 0.87286  0.67626  0.98396  Biso   1.000  Ni
  C153     1.0000 0.55100  0.60060  0.56820  Biso   1.000  C
  H133     1.0000 0.57970  0.57780  0.54580  Biso   1.000  H
  C154     1.0000 0.49950  0.61870  0.53550  Biso   1.000  C
  H134     1.0000 0.49550  0.61120  0.48980  Biso   1.000  H
  C155     1.0000 0.46390  0.66490  0.63090  Biso   1.000  C
  H135     1.0000 0.43500  0.68800  0.65270  Biso   1.000  H
  C156     1.0000 0.51730  0.64910  0.66510  Biso   1.000  C
  H136     1.0000 0.52310  0.66150  0.70910  Biso   1.000  H
  C157     1.0000 0.69880  0.47050  0.59190  Biso   1.000  C
  H137     1.0000 0.73860  0.48530  0.59790  Biso   1.000  H
  C158     1.0000 0.68850  0.42200  0.55340  Biso   1.000  C
  H138     1.0000 0.72300  0.40310  0.53590  Biso   1.000  H
  C159     1.0000 0.58560  0.42270  0.56780  Biso   1.000  C
  H139     1.0000 0.54750  0.40480  0.56070  Biso   1.000  H
  C160     1.0000 0.58660  0.47140  0.60790  Biso   1.000  C
  H140     1.0000 0.54990  0.48670  0.62500  Biso   1.000  H
  C161     1.0000 0.77090  0.68090  0.88340  Biso   1.000  C
  H141     1.0000 0.76390  0.71520  0.90600  Biso   1.000  H
  C162     1.0000 0.73650  0.66850  0.82390  Biso   1.000  C
  H142     1.0000 0.71600  0.69780  0.80120  Biso   1.000  H
  C163     1.0000 0.81170  0.59560  0.87990  Biso   1.000  C
  H143     1.0000 0.84080  0.56930  0.89550  Biso   1.000  H
  C164     1.0000 0.77200  0.57820  0.83040  Biso   1.000  C
  H144     1.0000 0.77170  0.54010  0.81720  Biso   1.000  H
  C165     1.0000 0.69720  0.70010  0.12800  Biso   1.000  C
  H145     1.0000 0.70860  0.66600  0.10740  Biso   1.000  H
  C166     1.0000 0.65220  0.69960  0.17600  Biso   1.000  C
  H146     1.0000 0.63330  0.66530  0.18790  Biso   1.000  H
  C167     1.0000 0.50850  0.79780  0.32750  Biso   1.000  C
  H147     1.0000 0.48580  0.83080  0.33640  Biso   1.000  H
  C168     1.0000 0.55260  0.79910  0.27810  Biso   1.000  C
  H148     1.0000 0.56010  0.83290  0.25480  Biso   1.000  H
  C169     1.0000 0.61766  0.59660  0.67160  Biso   1.000  C
  C170     1.0000 0.65160  0.54723  0.66550  Biso   1.000  C
  C171     1.0000 0.69232  0.59737  0.74550  Biso   1.000  C
  C172     1.0000 0.73336  0.61542  0.80060  Biso   1.000  C
  C173     1.0000 0.64499  0.49715  0.62230  Biso   1.000  C
  C174     1.0000 0.56153  0.61583  0.63570  Biso   1.000  C
  N21      1.0000 0.64446  0.62818  0.72200  Biso   1.000  N
  H149     1.0000 0.63280  0.66130  0.73580  Biso   1.000  H
  N22      1.0000 0.69893  0.54901  0.71280  Biso   1.000  N
  N23      1.0000 0.81198  0.64518  0.90647  Biso   1.000  N
  N24      1.0000 0.63369  0.40123  0.54003  Biso   1.000  N
  N25      1.0000 0.45239  0.64838  0.56853  Biso   1.000  N
  O9       1.0000 0.79618  0.70244  0.03726  Biso   1.000  O
  O10      1.0000 0.43141  0.79730  0.44155  Biso   1.000  O
  C175     1.0000 0.51670  0.57670  0.61740  Biso   1.000  C
  H150     1.0000 0.52230  0.53830  0.62760  Biso   1.000  H
  C176     1.0000 0.46400  0.59380  0.58450  Biso   1.000  C
  H151     1.0000 0.43490  0.56620  0.57250  Biso   1.000  H
  C177     1.0000 0.49590  0.68790  0.58620  Biso   1.000  C
  H152     1.0000 0.48940  0.72610  0.57540  Biso   1.000  H
  C178     1.0000 0.54920  0.67250  0.61970  Biso   1.000  C
  H153     1.0000 0.57770  0.70060  0.63190  Biso   1.000  H
  C179     1.0000 0.65370  0.44250  0.64780  Biso   1.000  C
  H154     1.0000 0.66350  0.43720  0.69290  Biso   1.000  H
  C180     1.0000 0.64790  0.39740  0.60660  Biso   1.000  C
  H155     1.0000 0.65400  0.36120  0.62460  Biso   1.000  H
  C181     1.0000 0.62620  0.45270  0.51760  Biso   1.000  C
  H156     1.0000 0.61680  0.45650  0.47220  Biso   1.000  H
  C182     1.0000 0.63090  0.50420  0.55540  Biso   1.000  C
  H157     1.0000 0.62490  0.54000  0.53620  Biso   1.000  H
  C183     1.0000 0.75560  0.66440  0.90030  Biso   1.000  C
  H158     1.0000 0.74070  0.68760  0.93470  Biso   1.000  H
  C184     1.0000 0.71690  0.65380  0.84880  Biso   1.000  C
  H159     1.0000 0.67890  0.67270  0.84610  Biso   1.000  H
  C185     1.0000 0.83090  0.60900  0.85550  Biso   1.000  C
  H160     1.0000 0.87160  0.59540  0.85660  Biso   1.000  H
  C186     1.0000 0.79390  0.59200  0.80400  Biso   1.000  C
  H161     1.0000 0.80780  0.56600  0.77200  Biso   1.000  H
  C187     1.0000 0.71530  0.70270  0.14810  Biso   1.000  C
  H162     1.0000 0.73930  0.67020  0.14110  Biso   1.000  H
  C188     1.0000 0.67070  0.70200  0.19660  Biso   1.000  C
  H163     1.0000 0.66460  0.66920  0.22240  Biso   1.000  H
  C189     1.0000 0.52910  0.79870  0.34930  Biso   1.000  C
  H164     1.0000 0.52040  0.83230  0.37240  Biso   1.000  H
  C190     1.0000 0.57510  0.79880  0.30030  Biso   1.000  C
  H165     1.0000 0.59830  0.83180  0.29270  Biso   1.000  H
  Ni6      1.0000 0.62714  0.32374  0.48396  Biso   1.000  Ni
  C191     1.0000 0.94900  0.39940  0.06820  Biso   1.000  C
  H166     1.0000 0.92030  0.42220  0.04580  Biso   1.000  H
  C192     1.0000 0.00050  0.38130  0.03550  Biso   1.000  C
  H167     1.0000 0.00450  0.38880  0.98980  Biso   1.000  H
  C193     1.0000 0.03610  0.33510  0.13090  Biso   1.000  C
  H168     1.0000 0.06500  0.31200  0.15270  Biso   1.000  H
  C194     1.0000 0.98270  0.35090  0.16510  Biso   1.000  C
  H169     1.0000 0.97690  0.33850  0.20910  Biso   1.000  H
  C195     1.0000 0.80120  0.52950  0.09190  Biso   1.000  C
  H170     1.0000 0.76140  0.51470  0.09790  Biso   1.000  H
  C196     1.0000 0.81150  0.57800  0.05340  Biso   1.000  C
  H171     1.0000 0.77700  0.59690  0.03590  Biso   1.000  H
  C197     1.0000 0.91440  0.57730  0.06780  Biso   1.000  C
  H172     1.0000 0.95250  0.59520  0.06070  Biso   1.000  H
  C198     1.0000 0.91340  0.52860  0.10790  Biso   1.000  C
  H173     1.0000 0.95010  0.51330  0.12500  Biso   1.000  H
  C199     1.0000 0.72910  0.31910  0.38340  Biso   1.000  C
  H174     1.0000 0.73610  0.28480  0.40600  Biso   1.000  H
  C200     1.0000 0.76350  0.33150  0.32390  Biso   1.000  C
  H175     1.0000 0.78400  0.30220  0.30120  Biso   1.000  H
  C201     1.0000 0.68830  0.40440  0.37990  Biso   1.000  C
  H176     1.0000 0.65920  0.43070  0.39550  Biso   1.000  H
  C202     1.0000 0.72800  0.42180  0.33040  Biso   1.000  C
  H177     1.0000 0.72830  0.45990  0.31720  Biso   1.000  H
  C203     1.0000 0.80280  0.29990  0.62800  Biso   1.000  C
  H178     1.0000 0.79140  0.33400  0.60740  Biso   1.000  H
  C204     1.0000 0.84780  0.30040  0.67600  Biso   1.000  C
  H179     1.0000 0.86670  0.33470  0.68790  Biso   1.000  H
  C205     1.0000 0.99150  0.20220  0.82750  Biso   1.000  C
  H180     1.0000 0.01420  0.16920  0.83640  Biso   1.000  H
  C206     1.0000 0.94740  0.20090  0.77810  Biso   1.000  C
  H181     1.0000 0.93990  0.16710  0.75480  Biso   1.000  H
  C207     1.0000 0.88234  0.40340  0.17160  Biso   1.000  C
  C208     1.0000 0.84840  0.45277  0.16550  Biso   1.000  C
  C209     1.0000 0.80768  0.40263  0.24550  Biso   1.000  C
  C210     1.0000 0.76664  0.38458  0.30060  Biso   1.000  C
  C211     1.0000 0.85501  0.50285  0.12230  Biso   1.000  C
  C212     1.0000 0.93847  0.38417  0.13570  Biso   1.000  C
  N26      1.0000 0.85554  0.37182  0.22200  Biso   1.000  N
  H182     1.0000 0.86720  0.33870  0.23580  Biso   1.000  H
  N27      1.0000 0.80107  0.45099  0.21280  Biso   1.000  N
  N28      1.0000 0.68802  0.35482  0.40647  Biso   1.000  N
  N29      1.0000 0.86631  0.59877  0.04003  Biso   1.000  N
  N30      1.0000 0.04761  0.35162  0.06853  Biso   1.000  N
  O11      1.0000 0.70382  0.29756  0.53726  Biso   1.000  O
  O12      1.0000 0.06859  0.20270  0.94155  Biso   1.000  O
  C213     1.0000 0.98330  0.42330  0.11740  Biso   1.000  C
  H183     1.0000 0.97770  0.46170  0.12760  Biso   1.000  H
  C214     1.0000 0.03600  0.40620  0.08450  Biso   1.000  C
  H184     1.0000 0.06510  0.43380  0.07250  Biso   1.000  H
  C215     1.0000 0.00410  0.31210  0.08620  Biso   1.000  C
  H185     1.0000 0.01060  0.27390  0.07540  Biso   1.000  H
  C216     1.0000 0.95080  0.32750  0.11970  Biso   1.000  C
  H186     1.0000 0.92230  0.29940  0.13190  Biso   1.000  H
  C217     1.0000 0.84630  0.55750  0.14780  Biso   1.000  C
  H187     1.0000 0.83650  0.56280  0.19290  Biso   1.000  H
  C218     1.0000 0.85210  0.60260  0.10660  Biso   1.000  C
  H188     1.0000 0.84600  0.63880  0.12460  Biso   1.000  H
  C219     1.0000 0.87380  0.54730  0.01760  Biso   1.000  C
  H189     1.0000 0.88320  0.54350  0.97220  Biso   1.000  H
  C220     1.0000 0.86910  0.49580  0.05540  Biso   1.000  C
  H190     1.0000 0.87510  0.46000  0.03620  Biso   1.000  H
  C221     1.0000 0.74440  0.33560  0.40030  Biso   1.000  C
  H191     1.0000 0.75930  0.31240  0.43470  Biso   1.000  H
  C222     1.0000 0.78310  0.34620  0.34880  Biso   1.000  C
  H192     1.0000 0.82110  0.32730  0.34610  Biso   1.000  H
  C223     1.0000 0.66910  0.39100  0.35550  Biso   1.000  C
  H193     1.0000 0.62840  0.40460  0.35660  Biso   1.000  H
  C224     1.0000 0.70610  0.40800  0.30400  Biso   1.000  C
  H194     1.0000 0.69220  0.43400  0.27200  Biso   1.000  H
  C225     1.0000 0.78470  0.29730  0.64810  Biso   1.000  C
  H195     1.0000 0.76070  0.32980  0.64110  Biso   1.000  H
  C226     1.0000 0.82930  0.29800  0.69660  Biso   1.000  C
  H196     1.0000 0.83540  0.33080  0.72240  Biso   1.000  H
  C227     1.0000 0.97090  0.20130  0.84930  Biso   1.000  C
  H197     1.0000 0.97960  0.16770  0.87240  Biso   1.000  H
  C228     1.0000 0.92490  0.20120  0.80030  Biso   1.000  C
  H198     1.0000 0.90170  0.16820  0.79270  Biso   1.000  H
  Ni7      1.0000 0.12714  0.17626  0.01604  Biso   1.000  Ni
  C229     1.0000 0.44900  0.10060  0.43180  Biso   1.000  C
  H199     1.0000 0.42030  0.07780  0.45420  Biso   1.000  H
  C230     1.0000 0.50050  0.11870  0.46450  Biso   1.000  C
  H200     1.0000 0.50450  0.11120  0.51020  Biso   1.000  H
  C231     1.0000 0.53610  0.16490  0.36910  Biso   1.000  C
  H201     1.0000 0.56500  0.18800  0.34730  Biso   1.000  H
  C232     1.0000 0.48270  0.14910  0.33490  Biso   1.000  C
  H202     1.0000 0.47690  0.16150  0.29090  Biso   1.000  H
  C233     1.0000 0.30120  0.97050  0.40810  Biso   1.000  C
  H203     1.0000 0.26140  0.98530  0.40210  Biso   1.000  H
  C234     1.0000 0.31150  0.92200  0.44660  Biso   1.000  C
  H204     1.0000 0.27700  0.90310  0.46410  Biso   1.000  H
  C235     1.0000 0.41440  0.92270  0.43220  Biso   1.000  C
  H205     1.0000 0.45250  0.90480  0.43930  Biso   1.000  H
  C236     1.0000 0.41340  0.97140  0.39210  Biso   1.000  C
  H206     1.0000 0.45010  0.98670  0.37500  Biso   1.000  H
  C237     1.0000 0.22910  0.18090  0.11660  Biso   1.000  C
  H207     1.0000 0.23610  0.21520  0.09400  Biso   1.000  H
  C238     1.0000 0.26350  0.16850  0.17610  Biso   1.000  C
  H208     1.0000 0.28400  0.19780  0.19880  Biso   1.000  H
  C239     1.0000 0.18830  0.09560  0.12010  Biso   1.000  C
  H209     1.0000 0.15920  0.06930  0.10450  Biso   1.000  H
  C240     1.0000 0.22800  0.07820  0.16960  Biso   1.000  C
  H210     1.0000 0.22830  0.04010  0.18280  Biso   1.000  H
  C241     1.0000 0.30280  0.20010  0.87200  Biso   1.000  C
  H211     1.0000 0.29140  0.16600  0.89260  Biso   1.000  H
  C242     1.0000 0.34780  0.19960  0.82400  Biso   1.000  C
  H212     1.0000 0.36670  0.16530  0.81210  Biso   1.000  H
  C243     1.0000 0.49150  0.29780  0.67250  Biso   1.000  C
  H213     1.0000 0.51420  0.33080  0.66360  Biso   1.000  H
  C244     1.0000 0.44740  0.29910  0.72190  Biso   1.000  C
  H214     1.0000 0.43990  0.33290  0.74520  Biso   1.000  H
  C245     1.0000 0.38234  0.09660  0.32840  Biso   1.000  C
  C246     1.0000 0.34840  0.04723  0.33450  Biso   1.000  C
  C247     1.0000 0.30768  0.09737  0.25450  Biso   1.000  C
  C248     1.0000 0.26664  0.11542  0.19940  Biso   1.000  C
  C249     1.0000 0.35501  0.99715  0.37770  Biso   1.000  C
  C250     1.0000 0.43847  0.11583  0.36430  Biso   1.000  C
  N31      1.0000 0.35554  0.12818  0.27800  Biso   1.000  N
  H215     1.0000 0.36720  0.16130  0.26420  Biso   1.000  H
  N32      1.0000 0.30107  0.04901  0.28720  Biso   1.000  N
  N33      1.0000 0.18802  0.14518  0.09353  Biso   1.000  N
  N34      1.0000 0.36631  0.90123  0.45997  Biso   1.000  N
  N35      1.0000 0.54761  0.14838  0.43147  Biso   1.000  N
  O13      1.0000 0.20382  0.20244  0.96274  Biso   1.000  O
  O14      1.0000 0.56859  0.29730  0.55845  Biso   1.000  O
  C251     1.0000 0.48330  0.07670  0.38260  Biso   1.000  C
  H216     1.0000 0.47770  0.03830  0.37240  Biso   1.000  H
  C252     1.0000 0.53600  0.09380  0.41550  Biso   1.000  C
  H217     1.0000 0.56510  0.06620  0.42750  Biso   1.000  H
  C253     1.0000 0.50410  0.18790  0.41380  Biso   1.000  C
  H218     1.0000 0.51060  0.22610  0.42460  Biso   1.000  H
  C254     1.0000 0.45080  0.17250  0.38030  Biso   1.000  C
  H219     1.0000 0.42230  0.20060  0.36810  Biso   1.000  H
  C255     1.0000 0.34630  0.94250  0.35220  Biso   1.000  C
  H220     1.0000 0.33650  0.93720  0.30710  Biso   1.000  H
  C256     1.0000 0.35210  0.89740  0.39340  Biso   1.000  C
  H221     1.0000 0.34600  0.86120  0.37540  Biso   1.000  H
  C257     1.0000 0.37380  0.95270  0.48240  Biso   1.000  C
  H222     1.0000 0.38320  0.95650  0.52780  Biso   1.000  H
  C258     1.0000 0.36910  0.00420  0.44460  Biso   1.000  C
  H223     1.0000 0.37510  0.04000  0.46380  Biso   1.000  H
  C259     1.0000 0.24440  0.16440  0.09970  Biso   1.000  C
  H224     1.0000 0.25930  0.18760  0.06530  Biso   1.000  H
  C260     1.0000 0.28310  0.15380  0.15120  Biso   1.000  C
  H225     1.0000 0.32110  0.17270  0.15390  Biso   1.000  H
  C261     1.0000 0.16910  0.10900  0.14450  Biso   1.000  C
  H226     1.0000 0.12840  0.09540  0.14340  Biso   1.000  H
  C262     1.0000 0.20610  0.09200  0.19600  Biso   1.000  C
  H227     1.0000 0.19220  0.06600  0.22800  Biso   1.000  H
  C263     1.0000 0.28470  0.20270  0.85190  Biso   1.000  C
  H228     1.0000 0.26070  0.17020  0.85890  Biso   1.000  H
  C264     1.0000 0.32930  0.20200  0.80340  Biso   1.000  C
  H229     1.0000 0.33540  0.16920  0.77760  Biso   1.000  H
  C265     1.0000 0.47090  0.29870  0.65070  Biso   1.000  C
  H230     1.0000 0.47960  0.33230  0.62760  Biso   1.000  H
  C266     1.0000 0.42490  0.29880  0.69970  Biso   1.000  C
  H231     1.0000 0.40170  0.33180  0.70730  Biso   1.000  H
  Ni8      1.0000 0.37286  0.82374  0.51604  Biso   1.000  Ni
  C267     1.0000 0.05100  0.89940  0.93180  Biso   1.000  C
  H232     1.0000 0.07970  0.92220  0.95420  Biso   1.000  H
  C268     1.0000 0.99950  0.88130  0.96450  Biso   1.000  C
  H233     1.0000 0.99550  0.88880  0.01020  Biso   1.000  H
  C269     1.0000 0.96390  0.83510  0.86910  Biso   1.000  C
  H234     1.0000 0.93500  0.81200  0.84730  Biso   1.000  H
  C270     1.0000 0.01730  0.85090  0.83490  Biso   1.000  C
  H235     1.0000 0.02310  0.83850  0.79090  Biso   1.000  H
  C271     1.0000 0.19880  0.02950  0.90810  Biso   1.000  C
  H236     1.0000 0.23860  0.01470  0.90210  Biso   1.000  H
  C272     1.0000 0.18850  0.07800  0.94660  Biso   1.000  C
  H237     1.0000 0.22300  0.09690  0.96410  Biso   1.000  H
  C273     1.0000 0.08560  0.07730  0.93220  Biso   1.000  C
  H238     1.0000 0.04750  0.09520  0.93930  Biso   1.000  H
  C274     1.0000 0.08660  0.02860  0.89210  Biso   1.000  C
  H239     1.0000 0.04990  0.01330  0.87500  Biso   1.000  H
  C275     1.0000 0.27090  0.81910  0.61660  Biso   1.000  C
  H240     1.0000 0.26390  0.78480  0.59400  Biso   1.000  H
  C276     1.0000 0.23650  0.83150  0.67610  Biso   1.000  C
  H241     1.0000 0.21600  0.80220  0.69880  Biso   1.000  H
  C277     1.0000 0.31170  0.90440  0.62010  Biso   1.000  C
  H242     1.0000 0.34080  0.93070  0.60450  Biso   1.000  H
  C278     1.0000 0.27200  0.92180  0.66960  Biso   1.000  C
  H243     1.0000 0.27170  0.95990  0.68280  Biso   1.000  H
  C279     1.0000 0.19720  0.79990  0.37200  Biso   1.000  C
  H244     1.0000 0.20860  0.83400  0.39260  Biso   1.000  H
  C280     1.0000 0.15220  0.80040  0.32400  Biso   1.000  C
  H245     1.0000 0.13330  0.83470  0.31210  Biso   1.000  H
  C281     1.0000 0.00850  0.70220  0.17250  Biso   1.000  C
  H246     1.0000 0.98580  0.66920  0.16360  Biso   1.000  H
  C282     1.0000 0.05260  0.70090  0.22190  Biso   1.000  C
  H247     1.0000 0.06010  0.66710  0.24520  Biso   1.000  H
  C283     1.0000 0.11766  0.90340  0.82840  Biso   1.000  C
  C284     1.0000 0.15160  0.95277  0.83450  Biso   1.000  C
  C285     1.0000 0.19232  0.90263  0.75450  Biso   1.000  C
  C286     1.0000 0.23336  0.88458  0.69940  Biso   1.000  C
  C287     1.0000 0.14499  0.00285  0.87770  Biso   1.000  C
  C288     1.0000 0.06153  0.88417  0.86430  Biso   1.000  C
  N36      1.0000 0.14446  0.87182  0.77800  Biso   1.000  N
  H248     1.0000 0.13280  0.83870  0.76420  Biso   1.000  H
  N37      1.0000 0.19893  0.95099  0.78720  Biso   1.000  N
  N38      1.0000 0.31198  0.85482  0.59353  Biso   1.000  N
  N39      1.0000 0.13369  0.09877  0.95997  Biso   1.000  N
  N40      1.0000 0.95239  0.85162  0.93147  Biso   1.000  N
  O15      1.0000 0.29618  0.79756  0.46274  Biso   1.000  O
  O16      1.0000 0.93141  0.70270  0.05845  Biso   1.000  O
  C289     1.0000 0.01670  0.92330  0.88260  Biso   1.000  C
  H249     1.0000 0.02230  0.96170  0.87240  Biso   1.000  H
  C290     1.0000 0.96400  0.90620  0.91550  Biso   1.000  C
  H250     1.0000 0.93490  0.93380  0.92750  Biso   1.000  H
  C291     1.0000 0.99590  0.81210  0.91380  Biso   1.000  C
  H251     1.0000 0.98940  0.77390  0.92460  Biso   1.000  H
  C292     1.0000 0.04920  0.82750  0.88030  Biso   1.000  C
  H252     1.0000 0.07770  0.79940  0.86810  Biso   1.000  H
  C293     1.0000 0.15370  0.05750  0.85220  Biso   1.000  C
  H253     1.0000 0.16350  0.06280  0.80710  Biso   1.000  H
  C294     1.0000 0.14790  0.10260  0.89340  Biso   1.000  C
  H254     1.0000 0.15400  0.13880  0.87540  Biso   1.000  H
  C295     1.0000 0.12620  0.04730  0.98240  Biso   1.000  C
  H255     1.0000 0.11680  0.04350  0.02780  Biso   1.000  H
  C296     1.0000 0.13090  0.99580  0.94460  Biso   1.000  C
  H256     1.0000 0.12490  0.96000  0.96380  Biso   1.000  H
  C297     1.0000 0.25560  0.83560  0.59970  Biso   1.000  C
  H257     1.0000 0.24070  0.81240  0.56530  Biso   1.000  H
  C298     1.0000 0.21690  0.84620  0.65120  Biso   1.000  C
  H258     1.0000 0.17890  0.82730  0.65390  Biso   1.000  H
  C299     1.0000 0.33090  0.89100  0.64450  Biso   1.000  C
  H259     1.0000 0.37160  0.90460  0.64340  Biso   1.000  H
  C300     1.0000 0.29390  0.90800  0.69600  Biso   1.000  C
  H260     1.0000 0.30780  0.93400  0.72800  Biso   1.000  H
  C301     1.0000 0.21530  0.79730  0.35190  Biso   1.000  C
  H261     1.0000 0.23930  0.82980  0.35890  Biso   1.000  H
  C302     1.0000 0.17070  0.79800  0.30340  Biso   1.000  C
  H262     1.0000 0.16460  0.83080  0.27760  Biso   1.000  H
  C303     1.0000 0.02910  0.70130  0.15070  Biso   1.000  C
  H263     1.0000 0.02040  0.66770  0.12760  Biso   1.000  H
  C304     1.0000 0.07510  0.70120  0.19970  Biso   1.000  C
  H264     1.0000 0.09830  0.66820  0.20730  Biso   1.000  H
  C305     1.0000 0.22280  0.25000  0.94370  Biso   1.000  C
  C306     1.0000 0.55070  0.25000  0.57960  Biso   1.000  C
  C307     1.0000 0.27400  0.25000  0.89070  Biso   1.000  C
  C308     1.0000 0.50370  0.25000  0.63560  Biso   1.000  C
  C309     1.0000 0.36580  0.25000  0.79220  Biso   1.000  C
  C310     1.0000 0.41350  0.25000  0.73730  Biso   1.000  C
  O17      1.0000 0.12202  0.25000  0.06613  Biso   1.000  O
  C311     1.0000 0.27720  0.75000  0.44370  Biso   1.000  C
  C312     1.0000 0.94930  0.75000  0.07960  Biso   1.000  C
  C313     1.0000 0.22600  0.75000  0.39070  Biso   1.000  C
  C314     1.0000 0.99630  0.75000  0.13560  Biso   1.000  C
  C315     1.0000 0.13420  0.75000  0.29220  Biso   1.000  C
  C316     1.0000 0.08650  0.75000  0.23730  Biso   1.000  C
  O18      1.0000 0.37798  0.75000  0.56613  Biso   1.000  O
  C317     1.0000 0.77720  0.75000  0.05630  Biso   1.000  C
  C318     1.0000 0.44930  0.75000  0.42040  Biso   1.000  C
  C319     1.0000 0.72600  0.75000  0.10930  Biso   1.000  C
  C320     1.0000 0.49630  0.75000  0.36440  Biso   1.000  C
  C321     1.0000 0.63420  0.75000  0.20780  Biso   1.000  C
  C322     1.0000 0.58650  0.75000  0.26270  Biso   1.000  C
  O19      1.0000 0.87798  0.75000  0.93387  Biso   1.000  O
  C323     1.0000 0.72280  0.25000  0.55630  Biso   1.000  C
  C324     1.0000 0.05070  0.25000  0.92040  Biso   1.000  C
  C325     1.0000 0.77400  0.25000  0.60930  Biso   1.000  C
  C326     1.0000 0.00370  0.25000  0.86440  Biso   1.000  C
  C327     1.0000 0.86580  0.25000  0.70780  Biso   1.000  C
  C328     1.0000 0.91350  0.25000  0.76270  Biso   1.000  C
  O20      1.0000 0.62202  0.25000  0.43387  Biso   1.000  O
