data_image0
_cell_length_a       13.9429
_cell_length_b       13.9429
_cell_length_c       13.9429
_cell_angle_alpha    90
_cell_angle_beta     90
_cell_angle_gamma    90

_symmetry_space_group_name_H-M    "P 1"
_symmetry_int_tables_number       1

loop_
  _symmetry_equiv_pos_as_xyz
  'x, y, z'

loop_
  _atom_site_label
  _atom_site_occupancy
  _atom_site_fract_x
  _atom_site_fract_y
  _atom_site_fract_z
  _atom_site_thermal_displace_type
  _atom_site_B_iso_or_equiv
  _atom_site_type_symbol
  Zn1      1.0000 0.12500  0.12500  0.62500  Biso   1.000  Zn
  Zn2      1.0000 0.62500  0.12500  0.12500  Biso   1.000  Zn
  Zn3      1.0000 0.12500  0.62500  0.12500  Biso   1.000  Zn
  Zn4      1.0000 0.62500  0.62500  0.62500  Biso   1.000  Zn
  Zn5      1.0000 0.87500  0.37500  0.87500  Biso   1.000  Zn
  Zn6      1.0000 0.87500  0.87500  0.37500  Biso   1.000  Zn
  Zn7      1.0000 0.37500  0.37500  0.37500  Biso   1.000  Zn
  Zn8      1.0000 0.37500  0.87500  0.87500  Biso   1.000  Zn
  N1       1.0000 0.18800  0.01000  0.68800  Biso   1.000  N
  C1       1.0000 0.25600  0.02100  0.75600  Biso   1.000  C
  N2       1.0000 0.18800  0.51000  0.18800  Biso   1.000  N
  C2       1.0000 0.25600  0.52100  0.25600  Biso   1.000  C
  N3       1.0000 0.68800  0.51000  0.68800  Biso   1.000  N
  C3       1.0000 0.75600  0.52100  0.75600  Biso   1.000  C
  N4       1.0000 0.56200  0.24000  0.18800  Biso   1.000  N
  C4       1.0000 0.49400  0.22900  0.25600  Biso   1.000  C
  N5       1.0000 0.06200  0.24000  0.68800  Biso   1.000  N
  C5       1.0000 0.99400  0.22900  0.75600  Biso   1.000  C
  N6       1.0000 0.06200  0.51000  0.06200  Biso   1.000  N
  C6       1.0000 0.99400  0.52100  0.99400  Biso   1.000  C
  N7       1.0000 0.06200  0.01000  0.56200  Biso   1.000  N
  C7       1.0000 0.99400  0.02100  0.49400  Biso   1.000  C
  N8       1.0000 0.56200  0.51000  0.56200  Biso   1.000  N
  C8       1.0000 0.49400  0.52100  0.49400  Biso   1.000  C
  N9       1.0000 0.56200  0.01000  0.06200  Biso   1.000  N
  C9       1.0000 0.49400  0.02100  0.99400  Biso   1.000  C
  N10      1.0000 0.68800  0.74000  0.56200  Biso   1.000  N
  C10      1.0000 0.75600  0.72900  0.49400  Biso   1.000  C
  N11      1.0000 0.68800  0.24000  0.06200  Biso   1.000  N
  C11      1.0000 0.75600  0.22900  0.99400  Biso   1.000  C
  N12      1.0000 0.68800  0.18800  0.01000  Biso   1.000  N
  C12      1.0000 0.75600  0.25600  0.02100  Biso   1.000  C
  N13      1.0000 0.68800  0.68800  0.51000  Biso   1.000  N
  C13      1.0000 0.75600  0.75600  0.52100  Biso   1.000  C
  N14      1.0000 0.18800  0.56200  0.24000  Biso   1.000  N
  C14      1.0000 0.25600  0.49400  0.22900  Biso   1.000  C
  N15      1.0000 0.18800  0.06200  0.74000  Biso   1.000  N
  C15      1.0000 0.25600  0.99400  0.72900  Biso   1.000  C
  N16      1.0000 0.06200  0.06200  0.51000  Biso   1.000  N
  C16      1.0000 0.99400  0.99400  0.52100  Biso   1.000  C
  N17      1.0000 0.06200  0.56200  0.01000  Biso   1.000  N
  C17      1.0000 0.99400  0.49400  0.02100  Biso   1.000  C
  N18      1.0000 0.56200  0.06200  0.01000  Biso   1.000  N
  C18      1.0000 0.49400  0.99400  0.02100  Biso   1.000  C
  N19      1.0000 0.56200  0.56200  0.51000  Biso   1.000  N
  C19      1.0000 0.49400  0.49400  0.52100  Biso   1.000  C
  N20      1.0000 0.56200  0.68800  0.74000  Biso   1.000  N
  C20      1.0000 0.49400  0.75600  0.72900  Biso   1.000  C
  N21      1.0000 0.06200  0.68800  0.24000  Biso   1.000  N
  C21      1.0000 0.99400  0.75600  0.22900  Biso   1.000  C
  N22      1.0000 0.01000  0.68800  0.18800  Biso   1.000  N
  C22      1.0000 0.02100  0.75600  0.25600  Biso   1.000  C
  N23      1.0000 0.51000  0.68800  0.68800  Biso   1.000  N
  C23      1.0000 0.52100  0.75600  0.75600  Biso   1.000  C
  N24      1.0000 0.24000  0.18800  0.56200  Biso   1.000  N
  C24      1.0000 0.22900  0.25600  0.49400  Biso   1.000  C
  N25      1.0000 0.24000  0.68800  0.06200  Biso   1.000  N
  C25      1.0000 0.22900  0.75600  0.99400  Biso   1.000  C
  N26      1.0000 0.51000  0.06200  0.06200  Biso   1.000  N
  C26      1.0000 0.52100  0.99400  0.99400  Biso   1.000  C
  N27      1.0000 0.51000  0.56200  0.56200  Biso   1.000  N
  C27      1.0000 0.52100  0.49400  0.49400  Biso   1.000  C
  N28      1.0000 0.01000  0.06200  0.56200  Biso   1.000  N
  C28      1.0000 0.02100  0.99400  0.49400  Biso   1.000  C
  N29      1.0000 0.01000  0.56200  0.06200  Biso   1.000  N
  C29      1.0000 0.02100  0.49400  0.99400  Biso   1.000  C
  N30      1.0000 0.74000  0.56200  0.68800  Biso   1.000  N
  C30      1.0000 0.72900  0.49400  0.75600  Biso   1.000  C
  N31      1.0000 0.74000  0.06200  0.18800  Biso   1.000  N
  C31      1.0000 0.72900  0.99400  0.25600  Biso   1.000  C
  N32      1.0000 0.76000  0.43800  0.81200  Biso   1.000  N
  C32      1.0000 0.77100  0.50600  0.74400  Biso   1.000  C
  N33      1.0000 0.76000  0.93800  0.31200  Biso   1.000  N
  C33      1.0000 0.77100  0.00600  0.24400  Biso   1.000  C
  N34      1.0000 0.99000  0.81200  0.31200  Biso   1.000  N
  C34      1.0000 0.97900  0.74400  0.24400  Biso   1.000  C
  N35      1.0000 0.49000  0.81200  0.81200  Biso   1.000  N
  C35      1.0000 0.47900  0.74400  0.74400  Biso   1.000  C
  N36      1.0000 0.26000  0.31200  0.43800  Biso   1.000  N
  C36      1.0000 0.27100  0.24400  0.50600  Biso   1.000  C
  N37      1.0000 0.26000  0.81200  0.93800  Biso   1.000  N
  C37      1.0000 0.27100  0.74400  0.00600  Biso   1.000  C
  N38      1.0000 0.49000  0.93800  0.93800  Biso   1.000  N
  C38      1.0000 0.47900  0.00600  0.00600  Biso   1.000  C
  N39      1.0000 0.49000  0.43800  0.43800  Biso   1.000  N
  C39      1.0000 0.47900  0.50600  0.50600  Biso   1.000  C
  N40      1.0000 0.99000  0.93800  0.43800  Biso   1.000  N
  C40      1.0000 0.97900  0.00600  0.50600  Biso   1.000  C
  N41      1.0000 0.99000  0.43800  0.93800  Biso   1.000  N
  C41      1.0000 0.97900  0.50600  0.00600  Biso   1.000  C
  N42      1.0000 0.93800  0.93800  0.49000  Biso   1.000  N
  C42      1.0000 0.00600  0.00600  0.47900  Biso   1.000  C
  N43      1.0000 0.93800  0.43800  0.99000  Biso   1.000  N
  C43      1.0000 0.00600  0.50600  0.97900  Biso   1.000  C
  N44      1.0000 0.43800  0.93800  0.99000  Biso   1.000  N
  C44      1.0000 0.50600  0.00600  0.97900  Biso   1.000  C
  N45      1.0000 0.43800  0.43800  0.49000  Biso   1.000  N
  C45      1.0000 0.50600  0.50600  0.47900  Biso   1.000  C
  N46      1.0000 0.31200  0.43800  0.26000  Biso   1.000  N
  C46      1.0000 0.24400  0.50600  0.27100  Biso   1.000  C
  N47      1.0000 0.31200  0.93800  0.76000  Biso   1.000  N
  C47      1.0000 0.24400  0.00600  0.77100  Biso   1.000  C
  N48      1.0000 0.81200  0.31200  0.99000  Biso   1.000  N
  C48      1.0000 0.74400  0.24400  0.97900  Biso   1.000  C
  N49      1.0000 0.81200  0.81200  0.49000  Biso   1.000  N
  C49      1.0000 0.74400  0.74400  0.47900  Biso   1.000  C
  N50      1.0000 0.43800  0.81200  0.76000  Biso   1.000  N
  C50      1.0000 0.50600  0.74400  0.77100  Biso   1.000  C
  N51      1.0000 0.93800  0.81200  0.26000  Biso   1.000  N
  C51      1.0000 0.00600  0.74400  0.27100  Biso   1.000  C
  N52      1.0000 0.43800  0.26000  0.31200  Biso   1.000  N
  C52      1.0000 0.50600  0.27100  0.24400  Biso   1.000  C
  N53      1.0000 0.93800  0.26000  0.81200  Biso   1.000  N
  C53      1.0000 0.00600  0.27100  0.74400  Biso   1.000  C
  N54      1.0000 0.93800  0.49000  0.93800  Biso   1.000  N
  C54      1.0000 0.00600  0.47900  0.00600  Biso   1.000  C
  N55      1.0000 0.93800  0.99000  0.43800  Biso   1.000  N
  C55      1.0000 0.00600  0.97900  0.50600  Biso   1.000  C
  N56      1.0000 0.43800  0.49000  0.43800  Biso   1.000  N
  C56      1.0000 0.50600  0.47900  0.50600  Biso   1.000  C
  N57      1.0000 0.43800  0.99000  0.93800  Biso   1.000  N
  C57      1.0000 0.50600  0.97900  0.00600  Biso   1.000  C
  N58      1.0000 0.81200  0.76000  0.43800  Biso   1.000  N
  C58      1.0000 0.74400  0.77100  0.50600  Biso   1.000  C
  N59      1.0000 0.81200  0.26000  0.93800  Biso   1.000  N
  C59      1.0000 0.74400  0.27100  0.00600  Biso   1.000  C
  N60      1.0000 0.31200  0.99000  0.81200  Biso   1.000  N
  C60      1.0000 0.24400  0.97900  0.74400  Biso   1.000  C
  N61      1.0000 0.31200  0.49000  0.31200  Biso   1.000  N
  C61      1.0000 0.24400  0.47900  0.24400  Biso   1.000  C
  N62      1.0000 0.81200  0.49000  0.81200  Biso   1.000  N
  C62      1.0000 0.74400  0.47900  0.74400  Biso   1.000  C
  N63      1.0000 0.81200  0.99000  0.31200  Biso   1.000  N
  C63      1.0000 0.74400  0.97900  0.24400  Biso   1.000  C
  N64      1.0000 0.43800  0.76000  0.81200  Biso   1.000  N
  C64      1.0000 0.50600  0.77100  0.74400  Biso   1.000  C
  N65      1.0000 0.93800  0.76000  0.31200  Biso   1.000  N
  C65      1.0000 0.00600  0.77100  0.24400  Biso   1.000  C
  N66      1.0000 0.31200  0.26000  0.43800  Biso   1.000  N
  C66      1.0000 0.24400  0.27100  0.50600  Biso   1.000  C
  N67      1.0000 0.31200  0.76000  0.93800  Biso   1.000  N
  C67      1.0000 0.24400  0.77100  0.00600  Biso   1.000  C
  N68      1.0000 0.31200  0.81200  0.99000  Biso   1.000  N
  C68      1.0000 0.24400  0.74400  0.97900  Biso   1.000  C
  N69      1.0000 0.31200  0.31200  0.49000  Biso   1.000  N
  C69      1.0000 0.24400  0.24400  0.47900  Biso   1.000  C
  N70      1.0000 0.81200  0.43800  0.76000  Biso   1.000  N
  C70      1.0000 0.74400  0.50600  0.77100  Biso   1.000  C
  N71      1.0000 0.81200  0.93800  0.26000  Biso   1.000  N
  C71      1.0000 0.74400  0.00600  0.27100  Biso   1.000  C
  N72      1.0000 0.43800  0.31200  0.26000  Biso   1.000  N
  C72      1.0000 0.50600  0.24400  0.27100  Biso   1.000  C
  N73      1.0000 0.93800  0.31200  0.76000  Biso   1.000  N
  C73      1.0000 0.00600  0.24400  0.77100  Biso   1.000  C
  N74      1.0000 0.99000  0.31200  0.81200  Biso   1.000  N
  C74      1.0000 0.97900  0.24400  0.74400  Biso   1.000  C
  N75      1.0000 0.49000  0.31200  0.31200  Biso   1.000  N
  C75      1.0000 0.47900  0.24400  0.24400  Biso   1.000  C
  N76      1.0000 0.76000  0.81200  0.43800  Biso   1.000  N
  C76      1.0000 0.77100  0.74400  0.50600  Biso   1.000  C
  N77      1.0000 0.76000  0.31200  0.93800  Biso   1.000  N
  C77      1.0000 0.77100  0.24400  0.00600  Biso   1.000  C
  N78      1.0000 0.26000  0.43800  0.31200  Biso   1.000  N
  C78      1.0000 0.27100  0.50600  0.24400  Biso   1.000  C
  N79      1.0000 0.26000  0.93800  0.81200  Biso   1.000  N
  C79      1.0000 0.27100  0.00600  0.74400  Biso   1.000  C
  N80      1.0000 0.24000  0.56200  0.18800  Biso   1.000  N
  C80      1.0000 0.22900  0.49400  0.25600  Biso   1.000  C
  N81      1.0000 0.24000  0.06200  0.68800  Biso   1.000  N
  C81      1.0000 0.22900  0.99400  0.75600  Biso   1.000  C
  N82      1.0000 0.01000  0.18800  0.68800  Biso   1.000  N
  C82      1.0000 0.02100  0.25600  0.75600  Biso   1.000  C
  N83      1.0000 0.51000  0.18800  0.18800  Biso   1.000  N
  C83      1.0000 0.52100  0.25600  0.25600  Biso   1.000  C
  N84      1.0000 0.74000  0.68800  0.56200  Biso   1.000  N
  C84      1.0000 0.72900  0.75600  0.49400  Biso   1.000  C
  N85      1.0000 0.74000  0.18800  0.06200  Biso   1.000  N
  C85      1.0000 0.72900  0.25600  0.99400  Biso   1.000  C
  N86      1.0000 0.68800  0.56200  0.74000  Biso   1.000  N
  C86      1.0000 0.75600  0.49400  0.72900  Biso   1.000  C
  N87      1.0000 0.68800  0.06200  0.24000  Biso   1.000  N
  C87      1.0000 0.75600  0.99400  0.22900  Biso   1.000  C
  N88      1.0000 0.18800  0.68800  0.01000  Biso   1.000  N
  C88      1.0000 0.25600  0.75600  0.02100  Biso   1.000  C
  N89      1.0000 0.18800  0.18800  0.51000  Biso   1.000  N
  C89      1.0000 0.25600  0.25600  0.52100  Biso   1.000  C
  N90      1.0000 0.56200  0.18800  0.24000  Biso   1.000  N
  C90      1.0000 0.49400  0.25600  0.22900  Biso   1.000  C
  N91      1.0000 0.06200  0.18800  0.74000  Biso   1.000  N
  C91      1.0000 0.99400  0.25600  0.72900  Biso   1.000  C
  N92      1.0000 0.56200  0.74000  0.68800  Biso   1.000  N
  C92      1.0000 0.49400  0.72900  0.75600  Biso   1.000  C
  N93      1.0000 0.06200  0.74000  0.18800  Biso   1.000  N
  C93      1.0000 0.99400  0.72900  0.25600  Biso   1.000  C
  N94      1.0000 0.18800  0.24000  0.56200  Biso   1.000  N
  C94      1.0000 0.25600  0.22900  0.49400  Biso   1.000  C
  N95      1.0000 0.18800  0.74000  0.06200  Biso   1.000  N
  C95      1.0000 0.25600  0.72900  0.99400  Biso   1.000  C
  N96      1.0000 0.68800  0.01000  0.18800  Biso   1.000  N
  C96      1.0000 0.75600  0.02100  0.25600  Biso   1.000  C
  N97      1.0000 0.03400  0.21600  0.68300  Biso   1.000  N
  N98      1.0000 0.98100  0.26900  0.61900  Biso   1.000  N
  N99      1.0000 0.95900  0.29100  0.64200  Biso   1.000  N
  H1       1.0000 0.98260  0.26740  0.58680  Biso   1.000  H
  N100     1.0000 0.03400  0.71600  0.18300  Biso   1.000  N
  N101     1.0000 0.98100  0.76900  0.11900  Biso   1.000  N
  N102     1.0000 0.95900  0.79100  0.14200  Biso   1.000  N
  H2       1.0000 0.98260  0.76740  0.08680  Biso   1.000  H
  N103     1.0000 0.53400  0.21600  0.18300  Biso   1.000  N
  N104     1.0000 0.48100  0.26900  0.11900  Biso   1.000  N
  N105     1.0000 0.45900  0.29100  0.14200  Biso   1.000  N
  H3       1.0000 0.48260  0.26740  0.08680  Biso   1.000  H
  N106     1.0000 0.71600  0.03400  0.18300  Biso   1.000  N
  N107     1.0000 0.76900  0.98100  0.11900  Biso   1.000  N
  N108     1.0000 0.79100  0.95900  0.14200  Biso   1.000  N
  H4       1.0000 0.76740  0.98260  0.08680  Biso   1.000  H
  N109     1.0000 0.71600  0.53400  0.68300  Biso   1.000  N
  N110     1.0000 0.76900  0.48100  0.61900  Biso   1.000  N
  N111     1.0000 0.79100  0.45900  0.64200  Biso   1.000  N
  H5       1.0000 0.76740  0.48260  0.58680  Biso   1.000  H
  N112     1.0000 0.21600  0.71600  0.06700  Biso   1.000  N
  N113     1.0000 0.26900  0.76900  0.13100  Biso   1.000  N
  N114     1.0000 0.29100  0.79100  0.10800  Biso   1.000  N
  H6       1.0000 0.26740  0.76740  0.16320  Biso   1.000  H
  N115     1.0000 0.21600  0.21600  0.56700  Biso   1.000  N
  N116     1.0000 0.26900  0.26900  0.63100  Biso   1.000  N
  N117     1.0000 0.29100  0.29100  0.60800  Biso   1.000  N
  H7       1.0000 0.26740  0.26740  0.66320  Biso   1.000  H
  N118     1.0000 0.71600  0.71600  0.56700  Biso   1.000  N
  N119     1.0000 0.76900  0.76900  0.63100  Biso   1.000  N
  N120     1.0000 0.79100  0.79100  0.60800  Biso   1.000  N
  H8       1.0000 0.76740  0.76740  0.66320  Biso   1.000  H
  N121     1.0000 0.53400  0.53400  0.56700  Biso   1.000  N
  N122     1.0000 0.48100  0.48100  0.63100  Biso   1.000  N
  N123     1.0000 0.45900  0.45900  0.60800  Biso   1.000  N
  H9       1.0000 0.48260  0.48260  0.66320  Biso   1.000  H
  N124     1.0000 0.53400  0.03400  0.06700  Biso   1.000  N
  N125     1.0000 0.48100  0.98100  0.13100  Biso   1.000  N
  N126     1.0000 0.45900  0.95900  0.10800  Biso   1.000  N
  H10      1.0000 0.48260  0.98260  0.16320  Biso   1.000  H
  N127     1.0000 0.03400  0.53400  0.06700  Biso   1.000  N
  N128     1.0000 0.98100  0.48100  0.13100  Biso   1.000  N
  N129     1.0000 0.95900  0.45900  0.10800  Biso   1.000  N
  H11      1.0000 0.98260  0.48260  0.16320  Biso   1.000  H
  N130     1.0000 0.03400  0.03400  0.56700  Biso   1.000  N
  N131     1.0000 0.98100  0.98100  0.63100  Biso   1.000  N
  N132     1.0000 0.95900  0.95900  0.60800  Biso   1.000  N
  H12      1.0000 0.98260  0.98260  0.66320  Biso   1.000  H
  N133     1.0000 0.68300  0.03400  0.21600  Biso   1.000  N
  N134     1.0000 0.61900  0.98100  0.26900  Biso   1.000  N
  N135     1.0000 0.64200  0.95900  0.29100  Biso   1.000  N
  H13      1.0000 0.58680  0.98260  0.26740  Biso   1.000  H
  N136     1.0000 0.68300  0.53400  0.71600  Biso   1.000  N
  N137     1.0000 0.61900  0.48100  0.76900  Biso   1.000  N
  N138     1.0000 0.64200  0.45900  0.79100  Biso   1.000  N
  H14      1.0000 0.58680  0.48260  0.76740  Biso   1.000  H
  N139     1.0000 0.18300  0.03400  0.71600  Biso   1.000  N
  N140     1.0000 0.11900  0.98100  0.76900  Biso   1.000  N
  N141     1.0000 0.14200  0.95900  0.79100  Biso   1.000  N
  H15      1.0000 0.08680  0.98260  0.76740  Biso   1.000  H
  N142     1.0000 0.18300  0.71600  0.03400  Biso   1.000  N
  N143     1.0000 0.11900  0.76900  0.98100  Biso   1.000  N
  N144     1.0000 0.14200  0.79100  0.95900  Biso   1.000  N
  H16      1.0000 0.08680  0.76740  0.98260  Biso   1.000  H
  N145     1.0000 0.18300  0.21600  0.53400  Biso   1.000  N
  N146     1.0000 0.11900  0.26900  0.48100  Biso   1.000  N
  N147     1.0000 0.14200  0.29100  0.45900  Biso   1.000  N
  H17      1.0000 0.08680  0.26740  0.48260  Biso   1.000  H
  N148     1.0000 0.06700  0.21600  0.71600  Biso   1.000  N
  N149     1.0000 0.13100  0.26900  0.76900  Biso   1.000  N
  N150     1.0000 0.10800  0.29100  0.79100  Biso   1.000  N
  H18      1.0000 0.16320  0.26740  0.76740  Biso   1.000  H
  N151     1.0000 0.56700  0.21600  0.21600  Biso   1.000  N
  N152     1.0000 0.63100  0.26900  0.26900  Biso   1.000  N
  N153     1.0000 0.60800  0.29100  0.29100  Biso   1.000  N
  H19      1.0000 0.66320  0.26740  0.26740  Biso   1.000  H
  N154     1.0000 0.56700  0.71600  0.71600  Biso   1.000  N
  N155     1.0000 0.63100  0.76900  0.76900  Biso   1.000  N
  N156     1.0000 0.60800  0.79100  0.79100  Biso   1.000  N
  H20      1.0000 0.66320  0.76740  0.76740  Biso   1.000  H
  N157     1.0000 0.56700  0.53400  0.53400  Biso   1.000  N
  N158     1.0000 0.63100  0.48100  0.48100  Biso   1.000  N
  N159     1.0000 0.60800  0.45900  0.45900  Biso   1.000  N
  H21      1.0000 0.66320  0.48260  0.48260  Biso   1.000  H
  N160     1.0000 0.56700  0.03400  0.03400  Biso   1.000  N
  N161     1.0000 0.63100  0.98100  0.98100  Biso   1.000  N
  N162     1.0000 0.60800  0.95900  0.95900  Biso   1.000  N
  H22      1.0000 0.66320  0.98260  0.98260  Biso   1.000  H
  N163     1.0000 0.06700  0.53400  0.03400  Biso   1.000  N
  N164     1.0000 0.13100  0.48100  0.98100  Biso   1.000  N
  N165     1.0000 0.10800  0.45900  0.95900  Biso   1.000  N
  H23      1.0000 0.16320  0.48260  0.98260  Biso   1.000  H
  N166     1.0000 0.06700  0.03400  0.53400  Biso   1.000  N
  N167     1.0000 0.13100  0.98100  0.48100  Biso   1.000  N
  N168     1.0000 0.10800  0.95900  0.45900  Biso   1.000  N
  H24      1.0000 0.16320  0.98260  0.48260  Biso   1.000  H
  N169     1.0000 0.21600  0.68300  0.03400  Biso   1.000  N
  N170     1.0000 0.26900  0.61900  0.98100  Biso   1.000  N
  N171     1.0000 0.29100  0.64200  0.95900  Biso   1.000  N
  H25      1.0000 0.26740  0.58680  0.98260  Biso   1.000  H
  N172     1.0000 0.21600  0.18300  0.53400  Biso   1.000  N
  N173     1.0000 0.26900  0.11900  0.48100  Biso   1.000  N
  N174     1.0000 0.29100  0.14200  0.45900  Biso   1.000  N
  H26      1.0000 0.26740  0.08680  0.48260  Biso   1.000  H
  N175     1.0000 0.71600  0.18300  0.03400  Biso   1.000  N
  N176     1.0000 0.76900  0.11900  0.98100  Biso   1.000  N
  N177     1.0000 0.79100  0.14200  0.95900  Biso   1.000  N
  H27      1.0000 0.76740  0.08680  0.98260  Biso   1.000  H
  N178     1.0000 0.03400  0.18300  0.71600  Biso   1.000  N
  N179     1.0000 0.98100  0.11900  0.76900  Biso   1.000  N
  N180     1.0000 0.95900  0.14200  0.79100  Biso   1.000  N
  H28      1.0000 0.98260  0.08680  0.76740  Biso   1.000  H
  N181     1.0000 0.53400  0.18300  0.21600  Biso   1.000  N
  N182     1.0000 0.48100  0.11900  0.26900  Biso   1.000  N
  N183     1.0000 0.45900  0.14200  0.29100  Biso   1.000  N
  H29      1.0000 0.48260  0.08680  0.26740  Biso   1.000  H
  N184     1.0000 0.71600  0.06700  0.21600  Biso   1.000  N
  N185     1.0000 0.76900  0.13100  0.26900  Biso   1.000  N
  N186     1.0000 0.79100  0.10800  0.29100  Biso   1.000  N
  H30      1.0000 0.76740  0.16320  0.26740  Biso   1.000  H
  N187     1.0000 0.71600  0.56700  0.71600  Biso   1.000  N
  N188     1.0000 0.76900  0.63100  0.76900  Biso   1.000  N
  N189     1.0000 0.79100  0.60800  0.79100  Biso   1.000  N
  H31      1.0000 0.76740  0.66320  0.76740  Biso   1.000  H
  N190     1.0000 0.53400  0.56700  0.53400  Biso   1.000  N
  N191     1.0000 0.48100  0.63100  0.48100  Biso   1.000  N
  N192     1.0000 0.45900  0.60800  0.45900  Biso   1.000  N
  H32      1.0000 0.48260  0.66320  0.48260  Biso   1.000  H
  N193     1.0000 0.53400  0.06700  0.03400  Biso   1.000  N
  N194     1.0000 0.48100  0.13100  0.98100  Biso   1.000  N
  N195     1.0000 0.45900  0.10800  0.95900  Biso   1.000  N
  H33      1.0000 0.48260  0.16320  0.98260  Biso   1.000  H
  N196     1.0000 0.03400  0.56700  0.03400  Biso   1.000  N
  N197     1.0000 0.98100  0.63100  0.98100  Biso   1.000  N
  N198     1.0000 0.95900  0.60800  0.95900  Biso   1.000  N
  H34      1.0000 0.98260  0.66320  0.98260  Biso   1.000  H
  N199     1.0000 0.03400  0.06700  0.53400  Biso   1.000  N
  N200     1.0000 0.98100  0.13100  0.48100  Biso   1.000  N
  N201     1.0000 0.95900  0.10800  0.45900  Biso   1.000  N
  H35      1.0000 0.98260  0.16320  0.48260  Biso   1.000  H
  N202     1.0000 0.96600  0.28400  0.81700  Biso   1.000  N
  N203     1.0000 0.01900  0.23100  0.88100  Biso   1.000  N
  N204     1.0000 0.04100  0.20900  0.85800  Biso   1.000  N
  H36      1.0000 0.01740  0.23260  0.91320  Biso   1.000  H
  N205     1.0000 0.46600  0.28400  0.31700  Biso   1.000  N
  N206     1.0000 0.51900  0.23100  0.38100  Biso   1.000  N
  N207     1.0000 0.54100  0.20900  0.35800  Biso   1.000  N
  H37      1.0000 0.51740  0.23260  0.41320  Biso   1.000  H
  N208     1.0000 0.78400  0.96600  0.31700  Biso   1.000  N
  N209     1.0000 0.73100  0.01900  0.38100  Biso   1.000  N
  N210     1.0000 0.70900  0.04100  0.35800  Biso   1.000  N
  H38      1.0000 0.73260  0.01740  0.41320  Biso   1.000  H
  N211     1.0000 0.78400  0.46600  0.81700  Biso   1.000  N
  N212     1.0000 0.73100  0.51900  0.88100  Biso   1.000  N
  N213     1.0000 0.70900  0.54100  0.85800  Biso   1.000  N
  H39      1.0000 0.73260  0.51740  0.91320  Biso   1.000  H
  N214     1.0000 0.46600  0.46600  0.43300  Biso   1.000  N
  N215     1.0000 0.51900  0.51900  0.36900  Biso   1.000  N
  N216     1.0000 0.54100  0.54100  0.39200  Biso   1.000  N
  H40      1.0000 0.51740  0.51740  0.33680  Biso   1.000  H
  N217     1.0000 0.46600  0.96600  0.93300  Biso   1.000  N
  N218     1.0000 0.51900  0.01900  0.86900  Biso   1.000  N
  N219     1.0000 0.54100  0.04100  0.89200  Biso   1.000  N
  H41      1.0000 0.51740  0.01740  0.83680  Biso   1.000  H
  N220     1.0000 0.96600  0.46600  0.93300  Biso   1.000  N
  N221     1.0000 0.01900  0.51900  0.86900  Biso   1.000  N
  N222     1.0000 0.04100  0.54100  0.89200  Biso   1.000  N
  H42      1.0000 0.01740  0.51740  0.83680  Biso   1.000  H
  N223     1.0000 0.96600  0.96600  0.43300  Biso   1.000  N
  N224     1.0000 0.01900  0.01900  0.36900  Biso   1.000  N
  N225     1.0000 0.04100  0.04100  0.39200  Biso   1.000  N
  H43      1.0000 0.01740  0.01740  0.33680  Biso   1.000  H
  N226     1.0000 0.28400  0.78400  0.93300  Biso   1.000  N
  N227     1.0000 0.23100  0.73100  0.86900  Biso   1.000  N
  N228     1.0000 0.20900  0.70900  0.89200  Biso   1.000  N
  H44      1.0000 0.23260  0.73260  0.83680  Biso   1.000  H
  N229     1.0000 0.28400  0.28400  0.43300  Biso   1.000  N
  N230     1.0000 0.23100  0.23100  0.36900  Biso   1.000  N
  N231     1.0000 0.20900  0.20900  0.39200  Biso   1.000  N
  H45      1.0000 0.23260  0.23260  0.33680  Biso   1.000  H
  N232     1.0000 0.78400  0.78400  0.43300  Biso   1.000  N
  N233     1.0000 0.73100  0.73100  0.36900  Biso   1.000  N
  N234     1.0000 0.70900  0.70900  0.39200  Biso   1.000  N
  H46      1.0000 0.73260  0.73260  0.33680  Biso   1.000  H
  N235     1.0000 0.78400  0.93300  0.28400  Biso   1.000  N
  N236     1.0000 0.73100  0.86900  0.23100  Biso   1.000  N
  N237     1.0000 0.70900  0.89200  0.20900  Biso   1.000  N
  H47      1.0000 0.73260  0.83680  0.23260  Biso   1.000  H
  N238     1.0000 0.78400  0.43300  0.78400  Biso   1.000  N
  N239     1.0000 0.73100  0.36900  0.73100  Biso   1.000  N
  N240     1.0000 0.70900  0.39200  0.70900  Biso   1.000  N
  H48      1.0000 0.73260  0.33680  0.73260  Biso   1.000  H
  N241     1.0000 0.46600  0.43300  0.46600  Biso   1.000  N
  N242     1.0000 0.51900  0.36900  0.51900  Biso   1.000  N
  N243     1.0000 0.54100  0.39200  0.54100  Biso   1.000  N
  H49      1.0000 0.51740  0.33680  0.51740  Biso   1.000  H
  N244     1.0000 0.46600  0.93300  0.96600  Biso   1.000  N
  N245     1.0000 0.51900  0.86900  0.01900  Biso   1.000  N
  N246     1.0000 0.54100  0.89200  0.04100  Biso   1.000  N
  H50      1.0000 0.51740  0.83680  0.01740  Biso   1.000  H
  N247     1.0000 0.96600  0.43300  0.96600  Biso   1.000  N
  N248     1.0000 0.01900  0.36900  0.01900  Biso   1.000  N
  N249     1.0000 0.04100  0.39200  0.04100  Biso   1.000  N
  H51      1.0000 0.01740  0.33680  0.01740  Biso   1.000  H
  N250     1.0000 0.96600  0.93300  0.46600  Biso   1.000  N
  N251     1.0000 0.01900  0.86900  0.51900  Biso   1.000  N
  N252     1.0000 0.04100  0.89200  0.54100  Biso   1.000  N
  H52      1.0000 0.01740  0.83680  0.51740  Biso   1.000  H
  N253     1.0000 0.96600  0.31700  0.78400  Biso   1.000  N
  N254     1.0000 0.01900  0.38100  0.73100  Biso   1.000  N
  N255     1.0000 0.04100  0.35800  0.70900  Biso   1.000  N
  H53      1.0000 0.01740  0.41320  0.73260  Biso   1.000  H
  N256     1.0000 0.46600  0.31700  0.28400  Biso   1.000  N
  N257     1.0000 0.51900  0.38100  0.23100  Biso   1.000  N
  N258     1.0000 0.54100  0.35800  0.20900  Biso   1.000  N
  H54      1.0000 0.51740  0.41320  0.23260  Biso   1.000  H
  N259     1.0000 0.28400  0.81700  0.96600  Biso   1.000  N
  N260     1.0000 0.23100  0.88100  0.01900  Biso   1.000  N
  N261     1.0000 0.20900  0.85800  0.04100  Biso   1.000  N
  H55      1.0000 0.23260  0.91320  0.01740  Biso   1.000  H
  N262     1.0000 0.28400  0.31700  0.46600  Biso   1.000  N
  N263     1.0000 0.23100  0.38100  0.51900  Biso   1.000  N
  N264     1.0000 0.20900  0.35800  0.54100  Biso   1.000  N
  H56      1.0000 0.23260  0.41320  0.51740  Biso   1.000  H
  N265     1.0000 0.43300  0.46600  0.46600  Biso   1.000  N
  N266     1.0000 0.36900  0.51900  0.51900  Biso   1.000  N
  N267     1.0000 0.39200  0.54100  0.54100  Biso   1.000  N
  H57      1.0000 0.33680  0.51740  0.51740  Biso   1.000  H
  N268     1.0000 0.43300  0.96600  0.96600  Biso   1.000  N
  N269     1.0000 0.36900  0.01900  0.01900  Biso   1.000  N
  N270     1.0000 0.39200  0.04100  0.04100  Biso   1.000  N
  H58      1.0000 0.33680  0.01740  0.01740  Biso   1.000  H
  N271     1.0000 0.93300  0.46600  0.96600  Biso   1.000  N
  N272     1.0000 0.86900  0.51900  0.01900  Biso   1.000  N
  N273     1.0000 0.89200  0.54100  0.04100  Biso   1.000  N
  H59      1.0000 0.83680  0.51740  0.01740  Biso   1.000  H
  N274     1.0000 0.93300  0.96600  0.46600  Biso   1.000  N
  N275     1.0000 0.86900  0.01900  0.51900  Biso   1.000  N
  N276     1.0000 0.89200  0.04100  0.54100  Biso   1.000  N
  H60      1.0000 0.83680  0.01740  0.51740  Biso   1.000  H
  N277     1.0000 0.93300  0.28400  0.78400  Biso   1.000  N
  N278     1.0000 0.86900  0.23100  0.73100  Biso   1.000  N
  N279     1.0000 0.89200  0.20900  0.70900  Biso   1.000  N
  H61      1.0000 0.83680  0.23260  0.73260  Biso   1.000  H
  N280     1.0000 0.43300  0.28400  0.28400  Biso   1.000  N
  N281     1.0000 0.36900  0.23100  0.23100  Biso   1.000  N
  N282     1.0000 0.39200  0.20900  0.20900  Biso   1.000  N
  H62      1.0000 0.33680  0.23260  0.23260  Biso   1.000  H
  N283     1.0000 0.43300  0.78400  0.78400  Biso   1.000  N
  N284     1.0000 0.36900  0.73100  0.73100  Biso   1.000  N
  N285     1.0000 0.39200  0.70900  0.70900  Biso   1.000  N
  H63      1.0000 0.33680  0.73260  0.73260  Biso   1.000  H
  N286     1.0000 0.81700  0.96600  0.28400  Biso   1.000  N
  N287     1.0000 0.88100  0.01900  0.23100  Biso   1.000  N
  N288     1.0000 0.85800  0.04100  0.20900  Biso   1.000  N
  H64      1.0000 0.91320  0.01740  0.23260  Biso   1.000  H
  N289     1.0000 0.81700  0.46600  0.78400  Biso   1.000  N
  N290     1.0000 0.88100  0.51900  0.73100  Biso   1.000  N
  N291     1.0000 0.85800  0.54100  0.70900  Biso   1.000  N
  H65      1.0000 0.91320  0.51740  0.73260  Biso   1.000  H
  N292     1.0000 0.31700  0.78400  0.96600  Biso   1.000  N
  N293     1.0000 0.38100  0.73100  0.01900  Biso   1.000  N
  N294     1.0000 0.35800  0.70900  0.04100  Biso   1.000  N
  H66      1.0000 0.41320  0.73260  0.01740  Biso   1.000  H
  N295     1.0000 0.31700  0.28400  0.46600  Biso   1.000  N
  N296     1.0000 0.38100  0.23100  0.51900  Biso   1.000  N
  N297     1.0000 0.35800  0.20900  0.54100  Biso   1.000  N
  H67      1.0000 0.41320  0.23260  0.51740  Biso   1.000  H
  N298     1.0000 0.96600  0.78400  0.31700  Biso   1.000  N
  N299     1.0000 0.01900  0.73100  0.38100  Biso   1.000  N
  N300     1.0000 0.04100  0.70900  0.35800  Biso   1.000  N
  H68      1.0000 0.01740  0.73260  0.41320  Biso   1.000  H
  N301     1.0000 0.46600  0.78400  0.81700  Biso   1.000  N
  N302     1.0000 0.51900  0.73100  0.88100  Biso   1.000  N
  N303     1.0000 0.54100  0.70900  0.85800  Biso   1.000  N
  H69      1.0000 0.51740  0.73260  0.91320  Biso   1.000  H
  N304     1.0000 0.28400  0.96600  0.81700  Biso   1.000  N
  N305     1.0000 0.23100  0.01900  0.88100  Biso   1.000  N
  N306     1.0000 0.20900  0.04100  0.85800  Biso   1.000  N
  H70      1.0000 0.23260  0.01740  0.91320  Biso   1.000  H
  N307     1.0000 0.28400  0.46600  0.31700  Biso   1.000  N
  N308     1.0000 0.23100  0.51900  0.38100  Biso   1.000  N
  N309     1.0000 0.20900  0.54100  0.35800  Biso   1.000  N
  H71      1.0000 0.23260  0.51740  0.41320  Biso   1.000  H
  N310     1.0000 0.78400  0.28400  0.93300  Biso   1.000  N
  N311     1.0000 0.73100  0.23100  0.86900  Biso   1.000  N
  N312     1.0000 0.70900  0.20900  0.89200  Biso   1.000  N
  H72      1.0000 0.73260  0.23260  0.83680  Biso   1.000  H
  N313     1.0000 0.31700  0.96600  0.78400  Biso   1.000  N
  N314     1.0000 0.38100  0.01900  0.73100  Biso   1.000  N
  N315     1.0000 0.35800  0.04100  0.70900  Biso   1.000  N
  H73      1.0000 0.41320  0.01740  0.73260  Biso   1.000  H
  N316     1.0000 0.31700  0.46600  0.28400  Biso   1.000  N
  N317     1.0000 0.38100  0.51900  0.23100  Biso   1.000  N
  N318     1.0000 0.35800  0.54100  0.20900  Biso   1.000  N
  H74      1.0000 0.41320  0.51740  0.23260  Biso   1.000  H
  N319     1.0000 0.81700  0.28400  0.96600  Biso   1.000  N
  N320     1.0000 0.88100  0.23100  0.01900  Biso   1.000  N
  N321     1.0000 0.85800  0.20900  0.04100  Biso   1.000  N
  H75      1.0000 0.91320  0.23260  0.01740  Biso   1.000  H
  N322     1.0000 0.81700  0.78400  0.46600  Biso   1.000  N
  N323     1.0000 0.88100  0.73100  0.51900  Biso   1.000  N
  N324     1.0000 0.85800  0.70900  0.54100  Biso   1.000  N
  H76      1.0000 0.91320  0.73260  0.51740  Biso   1.000  H
  N325     1.0000 0.93300  0.78400  0.28400  Biso   1.000  N
  N326     1.0000 0.86900  0.73100  0.23100  Biso   1.000  N
  N327     1.0000 0.89200  0.70900  0.20900  Biso   1.000  N
  H77      1.0000 0.83680  0.73260  0.23260  Biso   1.000  H
  N328     1.0000 0.78400  0.31700  0.96600  Biso   1.000  N
  N329     1.0000 0.73100  0.38100  0.01900  Biso   1.000  N
  N330     1.0000 0.70900  0.35800  0.04100  Biso   1.000  N
  H78      1.0000 0.73260  0.41320  0.01740  Biso   1.000  H
  N331     1.0000 0.78400  0.81700  0.46600  Biso   1.000  N
  N332     1.0000 0.73100  0.88100  0.51900  Biso   1.000  N
  N333     1.0000 0.70900  0.85800  0.54100  Biso   1.000  N
  H79      1.0000 0.73260  0.91320  0.51740  Biso   1.000  H
  N334     1.0000 0.96600  0.81700  0.28400  Biso   1.000  N
  N335     1.0000 0.01900  0.88100  0.23100  Biso   1.000  N
  N336     1.0000 0.04100  0.85800  0.20900  Biso   1.000  N
  H80      1.0000 0.01740  0.91320  0.23260  Biso   1.000  H
  N337     1.0000 0.46600  0.81700  0.78400  Biso   1.000  N
  N338     1.0000 0.51900  0.88100  0.73100  Biso   1.000  N
  N339     1.0000 0.54100  0.85800  0.70900  Biso   1.000  N
  H81      1.0000 0.51740  0.91320  0.73260  Biso   1.000  H
  N340     1.0000 0.28400  0.93300  0.78400  Biso   1.000  N
  N341     1.0000 0.23100  0.86900  0.73100  Biso   1.000  N
  N342     1.0000 0.20900  0.89200  0.70900  Biso   1.000  N
  H82      1.0000 0.23260  0.83680  0.73260  Biso   1.000  H
  N343     1.0000 0.28400  0.43300  0.28400  Biso   1.000  N
  N344     1.0000 0.23100  0.36900  0.23100  Biso   1.000  N
  N345     1.0000 0.20900  0.39200  0.20900  Biso   1.000  N
  H83      1.0000 0.23260  0.33680  0.23260  Biso   1.000  H
  N346     1.0000 0.53400  0.71600  0.68300  Biso   1.000  N
  N347     1.0000 0.48100  0.76900  0.61900  Biso   1.000  N
  N348     1.0000 0.45900  0.79100  0.64200  Biso   1.000  N
  H84      1.0000 0.48260  0.76740  0.58680  Biso   1.000  H
  N349     1.0000 0.21600  0.03400  0.68300  Biso   1.000  N
  N350     1.0000 0.26900  0.98100  0.61900  Biso   1.000  N
  N351     1.0000 0.29100  0.95900  0.64200  Biso   1.000  N
  H85      1.0000 0.26740  0.98260  0.58680  Biso   1.000  H
  N352     1.0000 0.21600  0.53400  0.18300  Biso   1.000  N
  N353     1.0000 0.26900  0.48100  0.11900  Biso   1.000  N
  N354     1.0000 0.29100  0.45900  0.14200  Biso   1.000  N
  H86      1.0000 0.26740  0.48260  0.08680  Biso   1.000  H
  N355     1.0000 0.71600  0.21600  0.06700  Biso   1.000  N
  N356     1.0000 0.76900  0.26900  0.13100  Biso   1.000  N
  N357     1.0000 0.79100  0.29100  0.10800  Biso   1.000  N
  H87      1.0000 0.76740  0.26740  0.16320  Biso   1.000  H
  N358     1.0000 0.21600  0.06700  0.71600  Biso   1.000  N
  N359     1.0000 0.26900  0.13100  0.76900  Biso   1.000  N
  N360     1.0000 0.29100  0.10800  0.79100  Biso   1.000  N
  H88      1.0000 0.26740  0.16320  0.76740  Biso   1.000  H
  N361     1.0000 0.21600  0.56700  0.21600  Biso   1.000  N
  N362     1.0000 0.26900  0.63100  0.26900  Biso   1.000  N
  N363     1.0000 0.29100  0.60800  0.29100  Biso   1.000  N
  H89      1.0000 0.26740  0.66320  0.26740  Biso   1.000  H
  N364     1.0000 0.03400  0.68300  0.21600  Biso   1.000  N
  N365     1.0000 0.98100  0.61900  0.26900  Biso   1.000  N
  N366     1.0000 0.95900  0.64200  0.29100  Biso   1.000  N
  H90      1.0000 0.98260  0.58680  0.26740  Biso   1.000  H
  N367     1.0000 0.53400  0.68300  0.71600  Biso   1.000  N
  N368     1.0000 0.48100  0.61900  0.76900  Biso   1.000  N
  N369     1.0000 0.45900  0.64200  0.79100  Biso   1.000  N
  H91      1.0000 0.48260  0.58680  0.76740  Biso   1.000  H
  N370     1.0000 0.71600  0.68300  0.53400  Biso   1.000  N
  N371     1.0000 0.76900  0.61900  0.48100  Biso   1.000  N
  N372     1.0000 0.79100  0.64200  0.45900  Biso   1.000  N
  H92      1.0000 0.76740  0.58680  0.48260  Biso   1.000  H
  N373     1.0000 0.06700  0.71600  0.21600  Biso   1.000  N
  N374     1.0000 0.13100  0.76900  0.26900  Biso   1.000  N
  N375     1.0000 0.10800  0.79100  0.29100  Biso   1.000  N
  H93      1.0000 0.16320  0.76740  0.26740  Biso   1.000  H
  N376     1.0000 0.18300  0.53400  0.21600  Biso   1.000  N
  N377     1.0000 0.11900  0.48100  0.26900  Biso   1.000  N
  N378     1.0000 0.14200  0.45900  0.29100  Biso   1.000  N
  H94      1.0000 0.08680  0.48260  0.26740  Biso   1.000  H
  N379     1.0000 0.68300  0.21600  0.03400  Biso   1.000  N
  N380     1.0000 0.61900  0.26900  0.98100  Biso   1.000  N
  N381     1.0000 0.64200  0.29100  0.95900  Biso   1.000  N
  H95      1.0000 0.58680  0.26740  0.98260  Biso   1.000  H
  N382     1.0000 0.68300  0.71600  0.53400  Biso   1.000  N
  N383     1.0000 0.61900  0.76900  0.48100  Biso   1.000  N
  N384     1.0000 0.64200  0.79100  0.45900  Biso   1.000  N
  H96      1.0000 0.58680  0.76740  0.48260  Biso   1.000  H
  C97      1.0000 0.07600  0.33200  0.67400  Biso   1.000  C
  H97      1.0000 0.08620  0.35810  0.66380  Biso   1.000  H
  C98      1.0000 0.57600  0.33200  0.17400  Biso   1.000  C
  H98      1.0000 0.58620  0.35810  0.16380  Biso   1.000  H
  C99      1.0000 0.57600  0.83200  0.67400  Biso   1.000  C
  H99      1.0000 0.58620  0.85810  0.66380  Biso   1.000  H
  C100     1.0000 0.67400  0.91800  0.17400  Biso   1.000  C
  H100     1.0000 0.66380  0.89190  0.16380  Biso   1.000  H
  C101     1.0000 0.67400  0.41800  0.67400  Biso   1.000  C
  H101     1.0000 0.66380  0.39190  0.66380  Biso   1.000  H
  C102     1.0000 0.17400  0.41800  0.17400  Biso   1.000  C
  H102     1.0000 0.16380  0.39190  0.16380  Biso   1.000  H
  C103     1.0000 0.17400  0.83200  0.07600  Biso   1.000  C
  H103     1.0000 0.16380  0.85810  0.08620  Biso   1.000  H
  C104     1.0000 0.17400  0.33200  0.57600  Biso   1.000  C
  H104     1.0000 0.16380  0.35810  0.58620  Biso   1.000  H
  C105     1.0000 0.67400  0.83200  0.57600  Biso   1.000  C
  H105     1.0000 0.66380  0.85810  0.58620  Biso   1.000  H
  C106     1.0000 0.57600  0.41800  0.57600  Biso   1.000  C
  H106     1.0000 0.58620  0.39190  0.58620  Biso   1.000  H
  C107     1.0000 0.57600  0.91800  0.07600  Biso   1.000  C
  H107     1.0000 0.58620  0.89190  0.08620  Biso   1.000  H
  C108     1.0000 0.07600  0.41800  0.07600  Biso   1.000  C
  H108     1.0000 0.08620  0.39190  0.08620  Biso   1.000  H
  C109     1.0000 0.07600  0.91800  0.57600  Biso   1.000  C
  H109     1.0000 0.08620  0.89190  0.58620  Biso   1.000  H
  C110     1.0000 0.67400  0.07600  0.33200  Biso   1.000  C
  H110     1.0000 0.66380  0.08620  0.35810  Biso   1.000  H
  C111     1.0000 0.67400  0.57600  0.83200  Biso   1.000  C
  H111     1.0000 0.66380  0.58620  0.85810  Biso   1.000  H
  C112     1.0000 0.17400  0.67400  0.91800  Biso   1.000  C
  H112     1.0000 0.16380  0.66380  0.89190  Biso   1.000  H
  C113     1.0000 0.17400  0.17400  0.41800  Biso   1.000  C
  H113     1.0000 0.16380  0.16380  0.39190  Biso   1.000  H
  C114     1.0000 0.07600  0.17400  0.83200  Biso   1.000  C
  H114     1.0000 0.08620  0.16380  0.85810  Biso   1.000  H
  C115     1.0000 0.57600  0.17400  0.33200  Biso   1.000  C
  H115     1.0000 0.58620  0.16380  0.35810  Biso   1.000  H
  C116     1.0000 0.57600  0.67400  0.83200  Biso   1.000  C
  H116     1.0000 0.58620  0.66380  0.85810  Biso   1.000  H
  C117     1.0000 0.57600  0.57600  0.41800  Biso   1.000  C
  H117     1.0000 0.58620  0.58620  0.39190  Biso   1.000  H
  C118     1.0000 0.57600  0.07600  0.91800  Biso   1.000  C
  H118     1.0000 0.58620  0.08620  0.89190  Biso   1.000  H
  C119     1.0000 0.07600  0.57600  0.91800  Biso   1.000  C
  H119     1.0000 0.08620  0.58620  0.89190  Biso   1.000  H
  C120     1.0000 0.07600  0.07600  0.41800  Biso   1.000  C
  H120     1.0000 0.08620  0.08620  0.39190  Biso   1.000  H
  C121     1.0000 0.33200  0.67400  0.07600  Biso   1.000  C
  H121     1.0000 0.35810  0.66380  0.08620  Biso   1.000  H
  C122     1.0000 0.33200  0.17400  0.57600  Biso   1.000  C
  H122     1.0000 0.35810  0.16380  0.58620  Biso   1.000  H
  C123     1.0000 0.83200  0.67400  0.57600  Biso   1.000  C
  H123     1.0000 0.85810  0.66380  0.58620  Biso   1.000  H
  C124     1.0000 0.91800  0.17400  0.67400  Biso   1.000  C
  H124     1.0000 0.89190  0.16380  0.66380  Biso   1.000  H
  C125     1.0000 0.41800  0.17400  0.17400  Biso   1.000  C
  H125     1.0000 0.39190  0.16380  0.16380  Biso   1.000  H
  C126     1.0000 0.83200  0.07600  0.17400  Biso   1.000  C
  H126     1.0000 0.85810  0.08620  0.16380  Biso   1.000  H
  C127     1.0000 0.83200  0.57600  0.67400  Biso   1.000  C
  H127     1.0000 0.85810  0.58620  0.66380  Biso   1.000  H
  C128     1.0000 0.41800  0.57600  0.57600  Biso   1.000  C
  H128     1.0000 0.39190  0.58620  0.58620  Biso   1.000  H
  C129     1.0000 0.41800  0.07600  0.07600  Biso   1.000  C
  H129     1.0000 0.39190  0.08620  0.08620  Biso   1.000  H
  C130     1.0000 0.91800  0.57600  0.07600  Biso   1.000  C
  H130     1.0000 0.89190  0.58620  0.08620  Biso   1.000  H
  C131     1.0000 0.91800  0.07600  0.57600  Biso   1.000  C
  H131     1.0000 0.89190  0.08620  0.58620  Biso   1.000  H
  C132     1.0000 0.08200  0.32600  0.82600  Biso   1.000  C
  H132     1.0000 0.10810  0.33620  0.83620  Biso   1.000  H
  C133     1.0000 0.58200  0.32600  0.32600  Biso   1.000  C
  H133     1.0000 0.60810  0.33620  0.33620  Biso   1.000  H
  C134     1.0000 0.66800  0.92400  0.32600  Biso   1.000  C
  H134     1.0000 0.64190  0.91380  0.33620  Biso   1.000  H
  C135     1.0000 0.66800  0.42400  0.82600  Biso   1.000  C
  H135     1.0000 0.64190  0.41380  0.83620  Biso   1.000  H
  C136     1.0000 0.58200  0.42400  0.42400  Biso   1.000  C
  H136     1.0000 0.60810  0.41380  0.41380  Biso   1.000  H
  C137     1.0000 0.58200  0.92400  0.92400  Biso   1.000  C
  H137     1.0000 0.60810  0.91380  0.91380  Biso   1.000  H
  C138     1.0000 0.08200  0.42400  0.92400  Biso   1.000  C
  H138     1.0000 0.10810  0.41380  0.91380  Biso   1.000  H
  C139     1.0000 0.08200  0.92400  0.42400  Biso   1.000  C
  H139     1.0000 0.10810  0.91380  0.41380  Biso   1.000  H
  C140     1.0000 0.16800  0.82600  0.92400  Biso   1.000  C
  H140     1.0000 0.14190  0.83620  0.91380  Biso   1.000  H
  C141     1.0000 0.16800  0.32600  0.42400  Biso   1.000  C
  H141     1.0000 0.14190  0.33620  0.41380  Biso   1.000  H
  C142     1.0000 0.82600  0.92400  0.16800  Biso   1.000  C
  H142     1.0000 0.83620  0.91380  0.14190  Biso   1.000  H
  C143     1.0000 0.82600  0.42400  0.66800  Biso   1.000  C
  H143     1.0000 0.83620  0.41380  0.64190  Biso   1.000  H
  C144     1.0000 0.42400  0.42400  0.58200  Biso   1.000  C
  H144     1.0000 0.41380  0.41380  0.60810  Biso   1.000  H
  C145     1.0000 0.42400  0.92400  0.08200  Biso   1.000  C
  H145     1.0000 0.41380  0.91380  0.10810  Biso   1.000  H
  C146     1.0000 0.92400  0.42400  0.08200  Biso   1.000  C
  H146     1.0000 0.91380  0.41380  0.10810  Biso   1.000  H
  C147     1.0000 0.92400  0.92400  0.58200  Biso   1.000  C
  H147     1.0000 0.91380  0.91380  0.60810  Biso   1.000  H
  C148     1.0000 0.92400  0.32600  0.66800  Biso   1.000  C
  H148     1.0000 0.91380  0.33620  0.64190  Biso   1.000  H
  C149     1.0000 0.42400  0.32600  0.16800  Biso   1.000  C
  H149     1.0000 0.41380  0.33620  0.14190  Biso   1.000  H
  C150     1.0000 0.32600  0.82600  0.08200  Biso   1.000  C
  H150     1.0000 0.33620  0.83620  0.10810  Biso   1.000  H
  C151     1.0000 0.32600  0.32600  0.58200  Biso   1.000  C
  H151     1.0000 0.33620  0.33620  0.60810  Biso   1.000  H
  C152     1.0000 0.42400  0.58200  0.42400  Biso   1.000  C
  H152     1.0000 0.41380  0.60810  0.41380  Biso   1.000  H
  C153     1.0000 0.42400  0.08200  0.92400  Biso   1.000  C
  H153     1.0000 0.41380  0.10810  0.91380  Biso   1.000  H
  C154     1.0000 0.92400  0.58200  0.92400  Biso   1.000  C
  H154     1.0000 0.91380  0.60810  0.91380  Biso   1.000  H
  C155     1.0000 0.92400  0.08200  0.42400  Biso   1.000  C
  H155     1.0000 0.91380  0.10810  0.41380  Biso   1.000  H
  C156     1.0000 0.92400  0.16800  0.82600  Biso   1.000  C
  H156     1.0000 0.91380  0.14190  0.83620  Biso   1.000  H
  C157     1.0000 0.42400  0.16800  0.32600  Biso   1.000  C
  H157     1.0000 0.41380  0.14190  0.33620  Biso   1.000  H
  C158     1.0000 0.82600  0.08200  0.32600  Biso   1.000  C
  H158     1.0000 0.83620  0.10810  0.33620  Biso   1.000  H
  C159     1.0000 0.82600  0.58200  0.82600  Biso   1.000  C
  H159     1.0000 0.83620  0.60810  0.83620  Biso   1.000  H
  C160     1.0000 0.32600  0.58200  0.32600  Biso   1.000  C
  H160     1.0000 0.33620  0.60810  0.33620  Biso   1.000  H
  C161     1.0000 0.32600  0.66800  0.92400  Biso   1.000  C
  H161     1.0000 0.33620  0.64190  0.91380  Biso   1.000  H
  C162     1.0000 0.32600  0.16800  0.42400  Biso   1.000  C
  H162     1.0000 0.33620  0.14190  0.41380  Biso   1.000  H
  C163     1.0000 0.92400  0.66800  0.32600  Biso   1.000  C
  H163     1.0000 0.91380  0.64190  0.33620  Biso   1.000  H
  C164     1.0000 0.42400  0.66800  0.82600  Biso   1.000  C
  H164     1.0000 0.41380  0.64190  0.83620  Biso   1.000  H
  C165     1.0000 0.32600  0.08200  0.82600  Biso   1.000  C
  H165     1.0000 0.33620  0.10810  0.83620  Biso   1.000  H
  C166     1.0000 0.82600  0.16800  0.92400  Biso   1.000  C
  H166     1.0000 0.83620  0.14190  0.91380  Biso   1.000  H
  C167     1.0000 0.82600  0.66800  0.42400  Biso   1.000  C
  H167     1.0000 0.83620  0.64190  0.41380  Biso   1.000  H
  C168     1.0000 0.32600  0.92400  0.66800  Biso   1.000  C
  H168     1.0000 0.33620  0.91380  0.64190  Biso   1.000  H
  C169     1.0000 0.32600  0.42400  0.16800  Biso   1.000  C
  H169     1.0000 0.33620  0.41380  0.14190  Biso   1.000  H
  C170     1.0000 0.82600  0.32600  0.08200  Biso   1.000  C
  H170     1.0000 0.83620  0.33620  0.10810  Biso   1.000  H
  C171     1.0000 0.82600  0.82600  0.58200  Biso   1.000  C
  H171     1.0000 0.83620  0.83620  0.60810  Biso   1.000  H
  C172     1.0000 0.92400  0.82600  0.16800  Biso   1.000  C
  H172     1.0000 0.91380  0.83620  0.14190  Biso   1.000  H
  C173     1.0000 0.42400  0.82600  0.66800  Biso   1.000  C
  H173     1.0000 0.41380  0.83620  0.64190  Biso   1.000  H
  C174     1.0000 0.66800  0.32600  0.92400  Biso   1.000  C
  H174     1.0000 0.64190  0.33620  0.91380  Biso   1.000  H
  C175     1.0000 0.66800  0.82600  0.42400  Biso   1.000  C
  H175     1.0000 0.64190  0.83620  0.41380  Biso   1.000  H
  C176     1.0000 0.08200  0.82600  0.32600  Biso   1.000  C
  H176     1.0000 0.10810  0.83620  0.33620  Biso   1.000  H
  C177     1.0000 0.58200  0.82600  0.82600  Biso   1.000  C
  H177     1.0000 0.60810  0.83620  0.83620  Biso   1.000  H
  C178     1.0000 0.16800  0.92400  0.82600  Biso   1.000  C
  H178     1.0000 0.14190  0.91380  0.83620  Biso   1.000  H
  C179     1.0000 0.16800  0.42400  0.32600  Biso   1.000  C
  H179     1.0000 0.14190  0.41380  0.33620  Biso   1.000  H
  C180     1.0000 0.91800  0.67400  0.17400  Biso   1.000  C
  H180     1.0000 0.89190  0.66380  0.16380  Biso   1.000  H
  C181     1.0000 0.41800  0.67400  0.67400  Biso   1.000  C
  H181     1.0000 0.39190  0.66380  0.66380  Biso   1.000  H
  C182     1.0000 0.33200  0.07600  0.67400  Biso   1.000  C
  H182     1.0000 0.35810  0.08620  0.66380  Biso   1.000  H
  C183     1.0000 0.33200  0.57600  0.17400  Biso   1.000  C
  H183     1.0000 0.35810  0.58620  0.16380  Biso   1.000  H
  C184     1.0000 0.83200  0.17400  0.07600  Biso   1.000  C
  H184     1.0000 0.85810  0.16380  0.08620  Biso   1.000  H
  C185     1.0000 0.17400  0.07600  0.83200  Biso   1.000  C
  H185     1.0000 0.16380  0.08620  0.85810  Biso   1.000  H
  C186     1.0000 0.17400  0.57600  0.33200  Biso   1.000  C
  H186     1.0000 0.16380  0.58620  0.35810  Biso   1.000  H
  C187     1.0000 0.07600  0.67400  0.33200  Biso   1.000  C
  H187     1.0000 0.08620  0.66380  0.35810  Biso   1.000  H
  C188     1.0000 0.67400  0.17400  0.91800  Biso   1.000  C
  H188     1.0000 0.66380  0.16380  0.89190  Biso   1.000  H
  C189     1.0000 0.67400  0.67400  0.41800  Biso   1.000  C
  H189     1.0000 0.66380  0.66380  0.39190  Biso   1.000  H
  C190     1.0000 0.07600  0.83200  0.17400  Biso   1.000  C
  H190     1.0000 0.08620  0.85810  0.16380  Biso   1.000  H
  C191     1.0000 0.17400  0.91800  0.67400  Biso   1.000  C
  H191     1.0000 0.16380  0.89190  0.66380  Biso   1.000  H
  C192     1.0000 0.67400  0.33200  0.07600  Biso   1.000  C
  H192     1.0000 0.66380  0.35810  0.08620  Biso   1.000  H
  H193     1.0000 0.12500  0.36000  0.62500  Biso   1.000  H
  H194     1.0000 0.62500  0.86000  0.62500  Biso   1.000  H
  H195     1.0000 0.62500  0.89000  0.12500  Biso   1.000  H
  H196     1.0000 0.12500  0.39000  0.12500  Biso   1.000  H
  H197     1.0000 0.12500  0.86000  0.12500  Biso   1.000  H
  H198     1.0000 0.62500  0.39000  0.62500  Biso   1.000  H
  H199     1.0000 0.62500  0.12500  0.36000  Biso   1.000  H
  H200     1.0000 0.62500  0.62500  0.86000  Biso   1.000  H
  H201     1.0000 0.12500  0.62500  0.89000  Biso   1.000  H
  H202     1.0000 0.12500  0.12500  0.39000  Biso   1.000  H
  H203     1.0000 0.12500  0.12500  0.86000  Biso   1.000  H
  H204     1.0000 0.62500  0.62500  0.39000  Biso   1.000  H
  H205     1.0000 0.36000  0.62500  0.12500  Biso   1.000  H
  H206     1.0000 0.86000  0.62500  0.62500  Biso   1.000  H
  H207     1.0000 0.89000  0.12500  0.62500  Biso   1.000  H
  H208     1.0000 0.86000  0.12500  0.12500  Biso   1.000  H
  H209     1.0000 0.39000  0.62500  0.62500  Biso   1.000  H
  H210     1.0000 0.39000  0.12500  0.12500  Biso   1.000  H
  H211     1.0000 0.11000  0.37500  0.87500  Biso   1.000  H
  H212     1.0000 0.64000  0.87500  0.37500  Biso   1.000  H
  H213     1.0000 0.61000  0.37500  0.37500  Biso   1.000  H
  H214     1.0000 0.61000  0.87500  0.87500  Biso   1.000  H
  H215     1.0000 0.14000  0.87500  0.87500  Biso   1.000  H
  H216     1.0000 0.14000  0.37500  0.37500  Biso   1.000  H
  H217     1.0000 0.87500  0.87500  0.14000  Biso   1.000  H
  H218     1.0000 0.37500  0.37500  0.61000  Biso   1.000  H
  H219     1.0000 0.87500  0.37500  0.64000  Biso   1.000  H
  H220     1.0000 0.37500  0.87500  0.11000  Biso   1.000  H
  H221     1.0000 0.37500  0.61000  0.37500  Biso   1.000  H
  H222     1.0000 0.87500  0.14000  0.87500  Biso   1.000  H
  H223     1.0000 0.87500  0.11000  0.37500  Biso   1.000  H
  H224     1.0000 0.87500  0.61000  0.87500  Biso   1.000  H
  H225     1.0000 0.37500  0.64000  0.87500  Biso   1.000  H
  H226     1.0000 0.37500  0.14000  0.37500  Biso   1.000  H
  H227     1.0000 0.87500  0.64000  0.37500  Biso   1.000  H
  H228     1.0000 0.37500  0.11000  0.87500  Biso   1.000  H
  H229     1.0000 0.37500  0.87500  0.64000  Biso   1.000  H
  H230     1.0000 0.37500  0.37500  0.14000  Biso   1.000  H
  H231     1.0000 0.87500  0.37500  0.11000  Biso   1.000  H
  H232     1.0000 0.87500  0.87500  0.61000  Biso   1.000  H
  H233     1.0000 0.64000  0.37500  0.87500  Biso   1.000  H
  H234     1.0000 0.11000  0.87500  0.37500  Biso   1.000  H
  H235     1.0000 0.89000  0.62500  0.12500  Biso   1.000  H
  H236     1.0000 0.36000  0.12500  0.62500  Biso   1.000  H
  H237     1.0000 0.12500  0.62500  0.36000  Biso   1.000  H
  H238     1.0000 0.62500  0.12500  0.89000  Biso   1.000  H
  H239     1.0000 0.12500  0.89000  0.62500  Biso   1.000  H
  H240     1.0000 0.62500  0.36000  0.12500  Biso   1.000  H
