data_image0
_cell_length_a       32.6919
_cell_length_b       32.6919
_cell_length_c       32.6919
_cell_angle_alpha    90
_cell_angle_beta     90
_cell_angle_gamma    90

_symmetry_space_group_name_H-M    "P 1"
_symmetry_int_tables_number       1

loop_
  _symmetry_equiv_pos_as_xyz
  'x, y, z'

loop_
  _atom_site_label
  _atom_site_occupancy
  _atom_site_fract_x
  _atom_site_fract_y
  _atom_site_fract_z
  _atom_site_thermal_displace_type
  _atom_site_B_iso_or_equiv
  _atom_site_type_symbol
  H1       1.0000 0.30350  0.57530  0.79400  Biso   1.000  H
  H2       1.0000 0.25790  0.58900  0.79680  Biso   1.000  H
  N1       1.0000 0.28696  0.61301  0.74533  Biso   1.000  N
  N2       1.0000 0.31697  0.61037  0.72260  Biso   1.000  N
  N3       1.0000 0.34712  0.60726  0.70014  Biso   1.000  N
  H3       1.0000 0.30350  0.07530  0.29400  Biso   1.000  H
  H4       1.0000 0.25790  0.08900  0.29680  Biso   1.000  H
  N4       1.0000 0.28696  0.11301  0.24533  Biso   1.000  N
  N5       1.0000 0.31697  0.11037  0.22260  Biso   1.000  N
  N6       1.0000 0.34712  0.10726  0.20014  Biso   1.000  N
  H5       1.0000 0.80350  0.57530  0.29400  Biso   1.000  H
  H6       1.0000 0.75790  0.58900  0.29680  Biso   1.000  H
  N7       1.0000 0.78696  0.61301  0.24533  Biso   1.000  N
  N8       1.0000 0.81697  0.61037  0.22260  Biso   1.000  N
  N9       1.0000 0.84712  0.60726  0.20014  Biso   1.000  N
  H7       1.0000 0.80350  0.07530  0.79400  Biso   1.000  H
  H8       1.0000 0.75790  0.08900  0.79680  Biso   1.000  H
  N10      1.0000 0.78696  0.11301  0.74533  Biso   1.000  N
  N11      1.0000 0.81697  0.11037  0.72260  Biso   1.000  N
  N12      1.0000 0.84712  0.10726  0.70014  Biso   1.000  N
  H9       1.0000 0.69650  0.42470  0.79400  Biso   1.000  H
  H10      1.0000 0.74210  0.41100  0.79680  Biso   1.000  H
  N13      1.0000 0.71304  0.38699  0.74533  Biso   1.000  N
  N14      1.0000 0.68303  0.38963  0.72260  Biso   1.000  N
  N15      1.0000 0.65288  0.39274  0.70014  Biso   1.000  N
  H11      1.0000 0.69650  0.92470  0.29400  Biso   1.000  H
  H12      1.0000 0.74210  0.91100  0.29680  Biso   1.000  H
  N16      1.0000 0.71304  0.88699  0.24533  Biso   1.000  N
  N17      1.0000 0.68303  0.88963  0.22260  Biso   1.000  N
  N18      1.0000 0.65288  0.89274  0.20014  Biso   1.000  N
  H13      1.0000 0.19650  0.42470  0.29400  Biso   1.000  H
  H14      1.0000 0.24210  0.41100  0.29680  Biso   1.000  H
  N19      1.0000 0.21304  0.38699  0.24533  Biso   1.000  N
  N20      1.0000 0.18303  0.38963  0.22260  Biso   1.000  N
  N21      1.0000 0.15288  0.39274  0.20014  Biso   1.000  N
  H15      1.0000 0.19650  0.92470  0.79400  Biso   1.000  H
  H16      1.0000 0.24210  0.91100  0.79680  Biso   1.000  H
  N22      1.0000 0.21304  0.88699  0.74533  Biso   1.000  N
  N23      1.0000 0.18303  0.88963  0.72260  Biso   1.000  N
  N24      1.0000 0.15288  0.89274  0.70014  Biso   1.000  N
  H17      1.0000 0.69650  0.57530  0.20600  Biso   1.000  H
  H18      1.0000 0.74210  0.58900  0.20320  Biso   1.000  H
  N25      1.0000 0.71304  0.61301  0.25467  Biso   1.000  N
  N26      1.0000 0.68303  0.61037  0.27740  Biso   1.000  N
  N27      1.0000 0.65288  0.60726  0.29986  Biso   1.000  N
  H19      1.0000 0.69650  0.07530  0.70600  Biso   1.000  H
  H20      1.0000 0.74210  0.08900  0.70320  Biso   1.000  H
  N28      1.0000 0.71304  0.11301  0.75467  Biso   1.000  N
  N29      1.0000 0.68303  0.11037  0.77740  Biso   1.000  N
  N30      1.0000 0.65288  0.10726  0.79986  Biso   1.000  N
  H21      1.0000 0.19650  0.57530  0.70600  Biso   1.000  H
  H22      1.0000 0.24210  0.58900  0.70320  Biso   1.000  H
  N31      1.0000 0.21304  0.61301  0.75467  Biso   1.000  N
  N32      1.0000 0.18303  0.61037  0.77740  Biso   1.000  N
  N33      1.0000 0.15288  0.60726  0.79986  Biso   1.000  N
  H23      1.0000 0.19650  0.07530  0.20600  Biso   1.000  H
  H24      1.0000 0.24210  0.08900  0.20320  Biso   1.000  H
  N34      1.0000 0.21304  0.11301  0.25467  Biso   1.000  N
  N35      1.0000 0.18303  0.11037  0.27740  Biso   1.000  N
  N36      1.0000 0.15288  0.10726  0.29986  Biso   1.000  N
  H25      1.0000 0.30350  0.42470  0.20600  Biso   1.000  H
  H26      1.0000 0.25790  0.41100  0.20320  Biso   1.000  H
  N37      1.0000 0.28696  0.38699  0.25467  Biso   1.000  N
  N38      1.0000 0.31697  0.38963  0.27740  Biso   1.000  N
  N39      1.0000 0.34712  0.39274  0.29986  Biso   1.000  N
  H27      1.0000 0.30350  0.92470  0.70600  Biso   1.000  H
  H28      1.0000 0.25790  0.91100  0.70320  Biso   1.000  H
  N40      1.0000 0.28696  0.88699  0.75467  Biso   1.000  N
  N41      1.0000 0.31697  0.88963  0.77740  Biso   1.000  N
  N42      1.0000 0.34712  0.89274  0.79986  Biso   1.000  N
  H29      1.0000 0.80350  0.42470  0.70600  Biso   1.000  H
  H30      1.0000 0.75790  0.41100  0.70320  Biso   1.000  H
  N43      1.0000 0.78696  0.38699  0.75467  Biso   1.000  N
  N44      1.0000 0.81697  0.38963  0.77740  Biso   1.000  N
  N45      1.0000 0.84712  0.39274  0.79986  Biso   1.000  N
  H31      1.0000 0.80350  0.92470  0.20600  Biso   1.000  H
  H32      1.0000 0.75790  0.91100  0.20320  Biso   1.000  H
  N46      1.0000 0.78696  0.88699  0.25467  Biso   1.000  N
  N47      1.0000 0.81697  0.88963  0.27740  Biso   1.000  N
  N48      1.0000 0.84712  0.89274  0.29986  Biso   1.000  N
  H33      1.0000 0.79400  0.30350  0.57530  Biso   1.000  H
  H34      1.0000 0.79680  0.25790  0.58900  Biso   1.000  H
  N49      1.0000 0.74533  0.28696  0.61301  Biso   1.000  N
  N50      1.0000 0.72260  0.31697  0.61037  Biso   1.000  N
  N51      1.0000 0.70014  0.34712  0.60726  Biso   1.000  N
  H35      1.0000 0.79400  0.80350  0.07530  Biso   1.000  H
  H36      1.0000 0.79680  0.75790  0.08900  Biso   1.000  H
  N52      1.0000 0.74533  0.78696  0.11301  Biso   1.000  N
  N53      1.0000 0.72260  0.81697  0.11037  Biso   1.000  N
  N54      1.0000 0.70014  0.84712  0.10726  Biso   1.000  N
  H37      1.0000 0.29400  0.30350  0.07530  Biso   1.000  H
  H38      1.0000 0.29680  0.25790  0.08900  Biso   1.000  H
  N55      1.0000 0.24533  0.28696  0.11301  Biso   1.000  N
  N56      1.0000 0.22260  0.31697  0.11037  Biso   1.000  N
  N57      1.0000 0.20014  0.34712  0.10726  Biso   1.000  N
  H39      1.0000 0.29400  0.80350  0.57530  Biso   1.000  H
  H40      1.0000 0.29680  0.75790  0.58900  Biso   1.000  H
  N58      1.0000 0.24533  0.78696  0.61301  Biso   1.000  N
  N59      1.0000 0.22260  0.81697  0.61037  Biso   1.000  N
  N60      1.0000 0.20014  0.84712  0.60726  Biso   1.000  N
  H41      1.0000 0.79400  0.69650  0.42470  Biso   1.000  H
  H42      1.0000 0.79680  0.74210  0.41100  Biso   1.000  H
  N61      1.0000 0.74533  0.71304  0.38699  Biso   1.000  N
  N62      1.0000 0.72260  0.68303  0.38963  Biso   1.000  N
  N63      1.0000 0.70014  0.65288  0.39274  Biso   1.000  N
  H43      1.0000 0.79400  0.19650  0.92470  Biso   1.000  H
  H44      1.0000 0.79680  0.24210  0.91100  Biso   1.000  H
  N64      1.0000 0.74533  0.21304  0.88699  Biso   1.000  N
  N65      1.0000 0.72260  0.18303  0.88963  Biso   1.000  N
  N66      1.0000 0.70014  0.15288  0.89274  Biso   1.000  N
  H45      1.0000 0.29400  0.69650  0.92470  Biso   1.000  H
  H46      1.0000 0.29680  0.74210  0.91100  Biso   1.000  H
  N67      1.0000 0.24533  0.71304  0.88699  Biso   1.000  N
  N68      1.0000 0.22260  0.68303  0.88963  Biso   1.000  N
  N69      1.0000 0.20014  0.65288  0.89274  Biso   1.000  N
  H47      1.0000 0.29400  0.19650  0.42470  Biso   1.000  H
  H48      1.0000 0.29680  0.24210  0.41100  Biso   1.000  H
  N70      1.0000 0.24533  0.21304  0.38699  Biso   1.000  N
  N71      1.0000 0.22260  0.18303  0.38963  Biso   1.000  N
  N72      1.0000 0.20014  0.15288  0.39274  Biso   1.000  N
  H49      1.0000 0.20600  0.69650  0.57530  Biso   1.000  H
  H50      1.0000 0.20320  0.74210  0.58900  Biso   1.000  H
  N73      1.0000 0.25467  0.71304  0.61301  Biso   1.000  N
  N74      1.0000 0.27740  0.68303  0.61037  Biso   1.000  N
  N75      1.0000 0.29986  0.65288  0.60726  Biso   1.000  N
  H51      1.0000 0.20600  0.19650  0.07530  Biso   1.000  H
  H52      1.0000 0.20320  0.24210  0.08900  Biso   1.000  H
  N76      1.0000 0.25467  0.21304  0.11301  Biso   1.000  N
  N77      1.0000 0.27740  0.18303  0.11037  Biso   1.000  N
  N78      1.0000 0.29986  0.15288  0.10726  Biso   1.000  N
  H53      1.0000 0.70600  0.69650  0.07530  Biso   1.000  H
  H54      1.0000 0.70320  0.74210  0.08900  Biso   1.000  H
  N79      1.0000 0.75467  0.71304  0.11301  Biso   1.000  N
  N80      1.0000 0.77740  0.68303  0.11037  Biso   1.000  N
  N81      1.0000 0.79986  0.65288  0.10726  Biso   1.000  N
  H55      1.0000 0.70600  0.19650  0.57530  Biso   1.000  H
  H56      1.0000 0.70320  0.24210  0.58900  Biso   1.000  H
  N82      1.0000 0.75467  0.21304  0.61301  Biso   1.000  N
  N83      1.0000 0.77740  0.18303  0.61037  Biso   1.000  N
  N84      1.0000 0.79986  0.15288  0.60726  Biso   1.000  N
  H57      1.0000 0.20600  0.30350  0.42470  Biso   1.000  H
  H58      1.0000 0.20320  0.25790  0.41100  Biso   1.000  H
  N85      1.0000 0.25467  0.28696  0.38699  Biso   1.000  N
  N86      1.0000 0.27740  0.31697  0.38963  Biso   1.000  N
  N87      1.0000 0.29986  0.34712  0.39274  Biso   1.000  N
  H59      1.0000 0.20600  0.80350  0.92470  Biso   1.000  H
  H60      1.0000 0.20320  0.75790  0.91100  Biso   1.000  H
  N88      1.0000 0.25467  0.78696  0.88699  Biso   1.000  N
  N89      1.0000 0.27740  0.81697  0.88963  Biso   1.000  N
  N90      1.0000 0.29986  0.84712  0.89274  Biso   1.000  N
  H61      1.0000 0.70600  0.30350  0.92470  Biso   1.000  H
  H62      1.0000 0.70320  0.25790  0.91100  Biso   1.000  H
  N91      1.0000 0.75467  0.28696  0.88699  Biso   1.000  N
  N92      1.0000 0.77740  0.31697  0.88963  Biso   1.000  N
  N93      1.0000 0.79986  0.34712  0.89274  Biso   1.000  N
  H63      1.0000 0.70600  0.80350  0.42470  Biso   1.000  H
  H64      1.0000 0.70320  0.75790  0.41100  Biso   1.000  H
  N94      1.0000 0.75467  0.78696  0.38699  Biso   1.000  N
  N95      1.0000 0.77740  0.81697  0.38963  Biso   1.000  N
  N96      1.0000 0.79986  0.84712  0.39274  Biso   1.000  N
  H65      1.0000 0.57530  0.79400  0.30350  Biso   1.000  H
  H66      1.0000 0.58900  0.79680  0.25790  Biso   1.000  H
  N97      1.0000 0.61301  0.74533  0.28696  Biso   1.000  N
  N98      1.0000 0.61037  0.72260  0.31697  Biso   1.000  N
  N99      1.0000 0.60726  0.70014  0.34712  Biso   1.000  N
  H67      1.0000 0.57530  0.29400  0.80350  Biso   1.000  H
  H68      1.0000 0.58900  0.29680  0.75790  Biso   1.000  H
  N100     1.0000 0.61301  0.24533  0.78696  Biso   1.000  N
  N101     1.0000 0.61037  0.22260  0.81697  Biso   1.000  N
  N102     1.0000 0.60726  0.20014  0.84712  Biso   1.000  N
  H69      1.0000 0.07530  0.79400  0.80350  Biso   1.000  H
  H70      1.0000 0.08900  0.79680  0.75790  Biso   1.000  H
  N103     1.0000 0.11301  0.74533  0.78696  Biso   1.000  N
  N104     1.0000 0.11037  0.72260  0.81697  Biso   1.000  N
  N105     1.0000 0.10726  0.70014  0.84712  Biso   1.000  N
  H71      1.0000 0.07530  0.29400  0.30350  Biso   1.000  H
  H72      1.0000 0.08900  0.29680  0.25790  Biso   1.000  H
  N106     1.0000 0.11301  0.24533  0.28696  Biso   1.000  N
  N107     1.0000 0.11037  0.22260  0.31697  Biso   1.000  N
  N108     1.0000 0.10726  0.20014  0.34712  Biso   1.000  N
  H73      1.0000 0.42470  0.79400  0.69650  Biso   1.000  H
  H74      1.0000 0.41100  0.79680  0.74210  Biso   1.000  H
  N109     1.0000 0.38699  0.74533  0.71304  Biso   1.000  N
  N110     1.0000 0.38963  0.72260  0.68303  Biso   1.000  N
  N111     1.0000 0.39274  0.70014  0.65288  Biso   1.000  N
  H75      1.0000 0.42470  0.29400  0.19650  Biso   1.000  H
  H76      1.0000 0.41100  0.29680  0.24210  Biso   1.000  H
  N112     1.0000 0.38699  0.24533  0.21304  Biso   1.000  N
  N113     1.0000 0.38963  0.22260  0.18303  Biso   1.000  N
  N114     1.0000 0.39274  0.20014  0.15288  Biso   1.000  N
  H77      1.0000 0.92470  0.79400  0.19650  Biso   1.000  H
  H78      1.0000 0.91100  0.79680  0.24210  Biso   1.000  H
  N115     1.0000 0.88699  0.74533  0.21304  Biso   1.000  N
  N116     1.0000 0.88963  0.72260  0.18303  Biso   1.000  N
  N117     1.0000 0.89274  0.70014  0.15288  Biso   1.000  N
  H79      1.0000 0.92470  0.29400  0.69650  Biso   1.000  H
  H80      1.0000 0.91100  0.29680  0.74210  Biso   1.000  H
  N118     1.0000 0.88699  0.24533  0.71304  Biso   1.000  N
  N119     1.0000 0.88963  0.22260  0.68303  Biso   1.000  N
  N120     1.0000 0.89274  0.20014  0.65288  Biso   1.000  N
  H81      1.0000 0.57530  0.20600  0.69650  Biso   1.000  H
  H82      1.0000 0.58900  0.20320  0.74210  Biso   1.000  H
  N121     1.0000 0.61301  0.25467  0.71304  Biso   1.000  N
  N122     1.0000 0.61037  0.27740  0.68303  Biso   1.000  N
  N123     1.0000 0.60726  0.29986  0.65288  Biso   1.000  N
  H83      1.0000 0.57530  0.70600  0.19650  Biso   1.000  H
  H84      1.0000 0.58900  0.70320  0.24210  Biso   1.000  H
  N124     1.0000 0.61301  0.75467  0.21304  Biso   1.000  N
  N125     1.0000 0.61037  0.77740  0.18303  Biso   1.000  N
  N126     1.0000 0.60726  0.79986  0.15288  Biso   1.000  N
  H85      1.0000 0.07530  0.20600  0.19650  Biso   1.000  H
  H86      1.0000 0.08900  0.20320  0.24210  Biso   1.000  H
  N127     1.0000 0.11301  0.25467  0.21304  Biso   1.000  N
  N128     1.0000 0.11037  0.27740  0.18303  Biso   1.000  N
  N129     1.0000 0.10726  0.29986  0.15288  Biso   1.000  N
  H87      1.0000 0.07530  0.70600  0.69650  Biso   1.000  H
  H88      1.0000 0.08900  0.70320  0.74210  Biso   1.000  H
  N130     1.0000 0.11301  0.75467  0.71304  Biso   1.000  N
  N131     1.0000 0.11037  0.77740  0.68303  Biso   1.000  N
  N132     1.0000 0.10726  0.79986  0.65288  Biso   1.000  N
  H89      1.0000 0.42470  0.20600  0.30350  Biso   1.000  H
  H90      1.0000 0.41100  0.20320  0.25790  Biso   1.000  H
  N133     1.0000 0.38699  0.25467  0.28696  Biso   1.000  N
  N134     1.0000 0.38963  0.27740  0.31697  Biso   1.000  N
  N135     1.0000 0.39274  0.29986  0.34712  Biso   1.000  N
  H91      1.0000 0.42470  0.70600  0.80350  Biso   1.000  H
  H92      1.0000 0.41100  0.70320  0.75790  Biso   1.000  H
  N136     1.0000 0.38699  0.75467  0.78696  Biso   1.000  N
  N137     1.0000 0.38963  0.77740  0.81697  Biso   1.000  N
  N138     1.0000 0.39274  0.79986  0.84712  Biso   1.000  N
  H93      1.0000 0.92470  0.20600  0.80350  Biso   1.000  H
  H94      1.0000 0.91100  0.20320  0.75790  Biso   1.000  H
  N139     1.0000 0.88699  0.25467  0.78696  Biso   1.000  N
  N140     1.0000 0.88963  0.27740  0.81697  Biso   1.000  N
  N141     1.0000 0.89274  0.29986  0.84712  Biso   1.000  N
  H95      1.0000 0.92470  0.70600  0.30350  Biso   1.000  H
  H96      1.0000 0.91100  0.70320  0.25790  Biso   1.000  H
  N142     1.0000 0.88699  0.75467  0.28696  Biso   1.000  N
  N143     1.0000 0.88963  0.77740  0.31697  Biso   1.000  N
  N144     1.0000 0.89274  0.79986  0.34712  Biso   1.000  N
  H97      1.0000 0.57530  0.30350  0.20600  Biso   1.000  H
  H98      1.0000 0.58900  0.25790  0.20320  Biso   1.000  H
  N145     1.0000 0.61301  0.28696  0.25467  Biso   1.000  N
  N146     1.0000 0.61037  0.31697  0.27740  Biso   1.000  N
  N147     1.0000 0.60726  0.34712  0.29986  Biso   1.000  N
  H99      1.0000 0.57530  0.80350  0.70600  Biso   1.000  H
  H100     1.0000 0.58900  0.75790  0.70320  Biso   1.000  H
  N148     1.0000 0.61301  0.78696  0.75467  Biso   1.000  N
  N149     1.0000 0.61037  0.81697  0.77740  Biso   1.000  N
  N150     1.0000 0.60726  0.84712  0.79986  Biso   1.000  N
  H101     1.0000 0.07530  0.30350  0.70600  Biso   1.000  H
  H102     1.0000 0.08900  0.25790  0.70320  Biso   1.000  H
  N151     1.0000 0.11301  0.28696  0.75467  Biso   1.000  N
  N152     1.0000 0.11037  0.31697  0.77740  Biso   1.000  N
  N153     1.0000 0.10726  0.34712  0.79986  Biso   1.000  N
  H103     1.0000 0.07530  0.80350  0.20600  Biso   1.000  H
  H104     1.0000 0.08900  0.75790  0.20320  Biso   1.000  H
  N154     1.0000 0.11301  0.78696  0.25467  Biso   1.000  N
  N155     1.0000 0.11037  0.81697  0.27740  Biso   1.000  N
  N156     1.0000 0.10726  0.84712  0.29986  Biso   1.000  N
  H105     1.0000 0.42470  0.69650  0.20600  Biso   1.000  H
  H106     1.0000 0.41100  0.74210  0.20320  Biso   1.000  H
  N157     1.0000 0.38699  0.71304  0.25467  Biso   1.000  N
  N158     1.0000 0.38963  0.68303  0.27740  Biso   1.000  N
  N159     1.0000 0.39274  0.65288  0.29986  Biso   1.000  N
  H107     1.0000 0.42470  0.19650  0.70600  Biso   1.000  H
  H108     1.0000 0.41100  0.24210  0.70320  Biso   1.000  H
  N160     1.0000 0.38699  0.21304  0.75467  Biso   1.000  N
  N161     1.0000 0.38963  0.18303  0.77740  Biso   1.000  N
  N162     1.0000 0.39274  0.15288  0.79986  Biso   1.000  N
  H109     1.0000 0.92470  0.69650  0.70600  Biso   1.000  H
  H110     1.0000 0.91100  0.74210  0.70320  Biso   1.000  H
  N163     1.0000 0.88699  0.71304  0.75467  Biso   1.000  N
  N164     1.0000 0.88963  0.68303  0.77740  Biso   1.000  N
  N165     1.0000 0.89274  0.65288  0.79986  Biso   1.000  N
  H111     1.0000 0.92470  0.19650  0.20600  Biso   1.000  H
  H112     1.0000 0.91100  0.24210  0.20320  Biso   1.000  H
  N166     1.0000 0.88699  0.21304  0.25467  Biso   1.000  N
  N167     1.0000 0.88963  0.18303  0.27740  Biso   1.000  N
  N168     1.0000 0.89274  0.15288  0.29986  Biso   1.000  N
  H113     1.0000 0.57530  0.69650  0.79400  Biso   1.000  H
  H114     1.0000 0.58900  0.74210  0.79680  Biso   1.000  H
  N169     1.0000 0.61301  0.71304  0.74533  Biso   1.000  N
  N170     1.0000 0.61037  0.68303  0.72260  Biso   1.000  N
  N171     1.0000 0.60726  0.65288  0.70014  Biso   1.000  N
  H115     1.0000 0.57530  0.19650  0.29400  Biso   1.000  H
  H116     1.0000 0.58900  0.24210  0.29680  Biso   1.000  H
  N172     1.0000 0.61301  0.21304  0.24533  Biso   1.000  N
  N173     1.0000 0.61037  0.18303  0.22260  Biso   1.000  N
  N174     1.0000 0.60726  0.15288  0.20014  Biso   1.000  N
  H117     1.0000 0.07530  0.69650  0.29400  Biso   1.000  H
  H118     1.0000 0.08900  0.74210  0.29680  Biso   1.000  H
  N175     1.0000 0.11301  0.71304  0.24533  Biso   1.000  N
  N176     1.0000 0.11037  0.68303  0.22260  Biso   1.000  N
  N177     1.0000 0.10726  0.65288  0.20014  Biso   1.000  N
  H119     1.0000 0.07530  0.19650  0.79400  Biso   1.000  H
  H120     1.0000 0.08900  0.24210  0.79680  Biso   1.000  H
  N178     1.0000 0.11301  0.21304  0.74533  Biso   1.000  N
  N179     1.0000 0.11037  0.18303  0.72260  Biso   1.000  N
  N180     1.0000 0.10726  0.15288  0.70014  Biso   1.000  N
  H121     1.0000 0.42470  0.30350  0.79400  Biso   1.000  H
  H122     1.0000 0.41100  0.25790  0.79680  Biso   1.000  H
  N181     1.0000 0.38699  0.28696  0.74533  Biso   1.000  N
  N182     1.0000 0.38963  0.31697  0.72260  Biso   1.000  N
  N183     1.0000 0.39274  0.34712  0.70014  Biso   1.000  N
  H123     1.0000 0.42470  0.80350  0.29400  Biso   1.000  H
  H124     1.0000 0.41100  0.75790  0.29680  Biso   1.000  H
  N184     1.0000 0.38699  0.78696  0.24533  Biso   1.000  N
  N185     1.0000 0.38963  0.81697  0.22260  Biso   1.000  N
  N186     1.0000 0.39274  0.84712  0.20014  Biso   1.000  N
  H125     1.0000 0.92470  0.30350  0.29400  Biso   1.000  H
  H126     1.0000 0.91100  0.25790  0.29680  Biso   1.000  H
  N187     1.0000 0.88699  0.28696  0.24533  Biso   1.000  N
  N188     1.0000 0.88963  0.31697  0.22260  Biso   1.000  N
  N189     1.0000 0.89274  0.34712  0.20014  Biso   1.000  N
  H127     1.0000 0.92470  0.80350  0.79400  Biso   1.000  H
  H128     1.0000 0.91100  0.75790  0.79680  Biso   1.000  H
  N190     1.0000 0.88699  0.78696  0.74533  Biso   1.000  N
  N191     1.0000 0.88963  0.81697  0.72260  Biso   1.000  N
  N192     1.0000 0.89274  0.84712  0.70014  Biso   1.000  N
  H129     1.0000 0.30350  0.79400  0.42470  Biso   1.000  H
  H130     1.0000 0.25790  0.79680  0.41100  Biso   1.000  H
  N193     1.0000 0.28696  0.74533  0.38699  Biso   1.000  N
  N194     1.0000 0.31697  0.72260  0.38963  Biso   1.000  N
  N195     1.0000 0.34712  0.70014  0.39274  Biso   1.000  N
  H131     1.0000 0.30350  0.29400  0.92470  Biso   1.000  H
  H132     1.0000 0.25790  0.29680  0.91100  Biso   1.000  H
  N196     1.0000 0.28696  0.24533  0.88699  Biso   1.000  N
  N197     1.0000 0.31697  0.22260  0.88963  Biso   1.000  N
  N198     1.0000 0.34712  0.20014  0.89274  Biso   1.000  N
  H133     1.0000 0.80350  0.79400  0.92470  Biso   1.000  H
  H134     1.0000 0.75790  0.79680  0.91100  Biso   1.000  H
  N199     1.0000 0.78696  0.74533  0.88699  Biso   1.000  N
  N200     1.0000 0.81697  0.72260  0.88963  Biso   1.000  N
  N201     1.0000 0.84712  0.70014  0.89274  Biso   1.000  N
  H135     1.0000 0.80350  0.29400  0.42470  Biso   1.000  H
  H136     1.0000 0.75790  0.29680  0.41100  Biso   1.000  H
  N202     1.0000 0.78696  0.24533  0.38699  Biso   1.000  N
  N203     1.0000 0.81697  0.22260  0.38963  Biso   1.000  N
  N204     1.0000 0.84712  0.20014  0.39274  Biso   1.000  N
  H137     1.0000 0.69650  0.79400  0.57530  Biso   1.000  H
  H138     1.0000 0.74210  0.79680  0.58900  Biso   1.000  H
  N205     1.0000 0.71304  0.74533  0.61301  Biso   1.000  N
  N206     1.0000 0.68303  0.72260  0.61037  Biso   1.000  N
  N207     1.0000 0.65288  0.70014  0.60726  Biso   1.000  N
  H139     1.0000 0.69650  0.29400  0.07530  Biso   1.000  H
  H140     1.0000 0.74210  0.29680  0.08900  Biso   1.000  H
  N208     1.0000 0.71304  0.24533  0.11301  Biso   1.000  N
  N209     1.0000 0.68303  0.22260  0.11037  Biso   1.000  N
  N210     1.0000 0.65288  0.20014  0.10726  Biso   1.000  N
  H141     1.0000 0.19650  0.79400  0.07530  Biso   1.000  H
  H142     1.0000 0.24210  0.79680  0.08900  Biso   1.000  H
  N211     1.0000 0.21304  0.74533  0.11301  Biso   1.000  N
  N212     1.0000 0.18303  0.72260  0.11037  Biso   1.000  N
  N213     1.0000 0.15288  0.70014  0.10726  Biso   1.000  N
  H143     1.0000 0.19650  0.29400  0.57530  Biso   1.000  H
  H144     1.0000 0.24210  0.29680  0.58900  Biso   1.000  H
  N214     1.0000 0.21304  0.24533  0.61301  Biso   1.000  N
  N215     1.0000 0.18303  0.22260  0.61037  Biso   1.000  N
  N216     1.0000 0.15288  0.20014  0.60726  Biso   1.000  N
  H145     1.0000 0.69650  0.20600  0.42470  Biso   1.000  H
  H146     1.0000 0.74210  0.20320  0.41100  Biso   1.000  H
  N217     1.0000 0.71304  0.25467  0.38699  Biso   1.000  N
  N218     1.0000 0.68303  0.27740  0.38963  Biso   1.000  N
  N219     1.0000 0.65288  0.29986  0.39274  Biso   1.000  N
  H147     1.0000 0.69650  0.70600  0.92470  Biso   1.000  H
  H148     1.0000 0.74210  0.70320  0.91100  Biso   1.000  H
  N220     1.0000 0.71304  0.75467  0.88699  Biso   1.000  N
  N221     1.0000 0.68303  0.77740  0.88963  Biso   1.000  N
  N222     1.0000 0.65288  0.79986  0.89274  Biso   1.000  N
  H149     1.0000 0.19650  0.20600  0.92470  Biso   1.000  H
  H150     1.0000 0.24210  0.20320  0.91100  Biso   1.000  H
  N223     1.0000 0.21304  0.25467  0.88699  Biso   1.000  N
  N224     1.0000 0.18303  0.27740  0.88963  Biso   1.000  N
  N225     1.0000 0.15288  0.29986  0.89274  Biso   1.000  N
  H151     1.0000 0.19650  0.70600  0.42470  Biso   1.000  H
  H152     1.0000 0.24210  0.70320  0.41100  Biso   1.000  H
  N226     1.0000 0.21304  0.75467  0.38699  Biso   1.000  N
  N227     1.0000 0.18303  0.77740  0.38963  Biso   1.000  N
  N228     1.0000 0.15288  0.79986  0.39274  Biso   1.000  N
  H153     1.0000 0.30350  0.20600  0.57530  Biso   1.000  H
  H154     1.0000 0.25790  0.20320  0.58900  Biso   1.000  H
  N229     1.0000 0.28696  0.25467  0.61301  Biso   1.000  N
  N230     1.0000 0.31697  0.27740  0.61037  Biso   1.000  N
  N231     1.0000 0.34712  0.29986  0.60726  Biso   1.000  N
  H155     1.0000 0.30350  0.70600  0.07530  Biso   1.000  H
  H156     1.0000 0.25790  0.70320  0.08900  Biso   1.000  H
  N232     1.0000 0.28696  0.75467  0.11301  Biso   1.000  N
  N233     1.0000 0.31697  0.77740  0.11037  Biso   1.000  N
  N234     1.0000 0.34712  0.79986  0.10726  Biso   1.000  N
  H157     1.0000 0.80350  0.20600  0.07530  Biso   1.000  H
  H158     1.0000 0.75790  0.20320  0.08900  Biso   1.000  H
  N235     1.0000 0.78696  0.25467  0.11301  Biso   1.000  N
  N236     1.0000 0.81697  0.27740  0.11037  Biso   1.000  N
  N237     1.0000 0.84712  0.29986  0.10726  Biso   1.000  N
  H159     1.0000 0.80350  0.70600  0.57530  Biso   1.000  H
  H160     1.0000 0.75790  0.70320  0.58900  Biso   1.000  H
  N238     1.0000 0.78696  0.75467  0.61301  Biso   1.000  N
  N239     1.0000 0.81697  0.77740  0.61037  Biso   1.000  N
  N240     1.0000 0.84712  0.79986  0.60726  Biso   1.000  N
  H161     1.0000 0.79400  0.57530  0.69650  Biso   1.000  H
  H162     1.0000 0.79680  0.58900  0.74210  Biso   1.000  H
  N241     1.0000 0.74533  0.61301  0.71304  Biso   1.000  N
  N242     1.0000 0.72260  0.61037  0.68303  Biso   1.000  N
  N243     1.0000 0.70014  0.60726  0.65288  Biso   1.000  N
  H163     1.0000 0.79400  0.07530  0.19650  Biso   1.000  H
  H164     1.0000 0.79680  0.08900  0.24210  Biso   1.000  H
  N244     1.0000 0.74533  0.11301  0.21304  Biso   1.000  N
  N245     1.0000 0.72260  0.11037  0.18303  Biso   1.000  N
  N246     1.0000 0.70014  0.10726  0.15288  Biso   1.000  N
  H165     1.0000 0.29400  0.57530  0.19650  Biso   1.000  H
  H166     1.0000 0.29680  0.58900  0.24210  Biso   1.000  H
  N247     1.0000 0.24533  0.61301  0.21304  Biso   1.000  N
  N248     1.0000 0.22260  0.61037  0.18303  Biso   1.000  N
  N249     1.0000 0.20014  0.60726  0.15288  Biso   1.000  N
  H167     1.0000 0.29400  0.07530  0.69650  Biso   1.000  H
  H168     1.0000 0.29680  0.08900  0.74210  Biso   1.000  H
  N250     1.0000 0.24533  0.11301  0.71304  Biso   1.000  N
  N251     1.0000 0.22260  0.11037  0.68303  Biso   1.000  N
  N252     1.0000 0.20014  0.10726  0.65288  Biso   1.000  N
  H169     1.0000 0.79400  0.42470  0.30350  Biso   1.000  H
  H170     1.0000 0.79680  0.41100  0.25790  Biso   1.000  H
  N253     1.0000 0.74533  0.38699  0.28696  Biso   1.000  N
  N254     1.0000 0.72260  0.38963  0.31697  Biso   1.000  N
  N255     1.0000 0.70014  0.39274  0.34712  Biso   1.000  N
  H171     1.0000 0.79400  0.92470  0.80350  Biso   1.000  H
  H172     1.0000 0.79680  0.91100  0.75790  Biso   1.000  H
  N256     1.0000 0.74533  0.88699  0.78696  Biso   1.000  N
  N257     1.0000 0.72260  0.88963  0.81697  Biso   1.000  N
  N258     1.0000 0.70014  0.89274  0.84712  Biso   1.000  N
  H173     1.0000 0.29400  0.42470  0.80350  Biso   1.000  H
  H174     1.0000 0.29680  0.41100  0.75790  Biso   1.000  H
  N259     1.0000 0.24533  0.38699  0.78696  Biso   1.000  N
  N260     1.0000 0.22260  0.38963  0.81697  Biso   1.000  N
  N261     1.0000 0.20014  0.39274  0.84712  Biso   1.000  N
  H175     1.0000 0.29400  0.92470  0.30350  Biso   1.000  H
  H176     1.0000 0.29680  0.91100  0.25790  Biso   1.000  H
  N262     1.0000 0.24533  0.88699  0.28696  Biso   1.000  N
  N263     1.0000 0.22260  0.88963  0.31697  Biso   1.000  N
  N264     1.0000 0.20014  0.89274  0.34712  Biso   1.000  N
  H177     1.0000 0.20600  0.57530  0.30350  Biso   1.000  H
  H178     1.0000 0.20320  0.58900  0.25790  Biso   1.000  H
  N265     1.0000 0.25467  0.61301  0.28696  Biso   1.000  N
  N266     1.0000 0.27740  0.61037  0.31697  Biso   1.000  N
  N267     1.0000 0.29986  0.60726  0.34712  Biso   1.000  N
  H179     1.0000 0.20600  0.07530  0.80350  Biso   1.000  H
  H180     1.0000 0.20320  0.08900  0.75790  Biso   1.000  H
  N268     1.0000 0.25467  0.11301  0.78696  Biso   1.000  N
  N269     1.0000 0.27740  0.11037  0.81697  Biso   1.000  N
  N270     1.0000 0.29986  0.10726  0.84712  Biso   1.000  N
  H181     1.0000 0.70600  0.57530  0.80350  Biso   1.000  H
  H182     1.0000 0.70320  0.58900  0.75790  Biso   1.000  H
  N271     1.0000 0.75467  0.61301  0.78696  Biso   1.000  N
  N272     1.0000 0.77740  0.61037  0.81697  Biso   1.000  N
  N273     1.0000 0.79986  0.60726  0.84712  Biso   1.000  N
  H183     1.0000 0.70600  0.07530  0.30350  Biso   1.000  H
  H184     1.0000 0.70320  0.08900  0.25790  Biso   1.000  H
  N274     1.0000 0.75467  0.11301  0.28696  Biso   1.000  N
  N275     1.0000 0.77740  0.11037  0.31697  Biso   1.000  N
  N276     1.0000 0.79986  0.10726  0.34712  Biso   1.000  N
  H185     1.0000 0.20600  0.42470  0.69650  Biso   1.000  H
  H186     1.0000 0.20320  0.41100  0.74210  Biso   1.000  H
  N277     1.0000 0.25467  0.38699  0.71304  Biso   1.000  N
  N278     1.0000 0.27740  0.38963  0.68303  Biso   1.000  N
  N279     1.0000 0.29986  0.39274  0.65288  Biso   1.000  N
  H187     1.0000 0.20600  0.92470  0.19650  Biso   1.000  H
  H188     1.0000 0.20320  0.91100  0.24210  Biso   1.000  H
  N280     1.0000 0.25467  0.88699  0.21304  Biso   1.000  N
  N281     1.0000 0.27740  0.88963  0.18303  Biso   1.000  N
  N282     1.0000 0.29986  0.89274  0.15288  Biso   1.000  N
  H189     1.0000 0.70600  0.42470  0.19650  Biso   1.000  H
  H190     1.0000 0.70320  0.41100  0.24210  Biso   1.000  H
  N283     1.0000 0.75467  0.38699  0.21304  Biso   1.000  N
  N284     1.0000 0.77740  0.38963  0.18303  Biso   1.000  N
  N285     1.0000 0.79986  0.39274  0.15288  Biso   1.000  N
  H191     1.0000 0.70600  0.92470  0.69650  Biso   1.000  H
  H192     1.0000 0.70320  0.91100  0.74210  Biso   1.000  H
  N286     1.0000 0.75467  0.88699  0.71304  Biso   1.000  N
  N287     1.0000 0.77740  0.88963  0.68303  Biso   1.000  N
  N288     1.0000 0.79986  0.89274  0.65288  Biso   1.000  N
  H193     1.0000 0.69650  0.42470  0.20600  Biso   1.000  H
  H194     1.0000 0.74210  0.41100  0.20320  Biso   1.000  H
  N289     1.0000 0.71304  0.38699  0.25467  Biso   1.000  N
  N290     1.0000 0.68303  0.38963  0.27740  Biso   1.000  N
  N291     1.0000 0.65288  0.39274  0.29986  Biso   1.000  N
  H195     1.0000 0.69650  0.92470  0.70600  Biso   1.000  H
  H196     1.0000 0.74210  0.91100  0.70320  Biso   1.000  H
  N292     1.0000 0.71304  0.88699  0.75467  Biso   1.000  N
  N293     1.0000 0.68303  0.88963  0.77740  Biso   1.000  N
  N294     1.0000 0.65288  0.89274  0.79986  Biso   1.000  N
  H197     1.0000 0.19650  0.42470  0.70600  Biso   1.000  H
  H198     1.0000 0.24210  0.41100  0.70320  Biso   1.000  H
  N295     1.0000 0.21304  0.38699  0.75467  Biso   1.000  N
  N296     1.0000 0.18303  0.38963  0.77740  Biso   1.000  N
  N297     1.0000 0.15288  0.39274  0.79986  Biso   1.000  N
  H199     1.0000 0.19650  0.92470  0.20600  Biso   1.000  H
  H200     1.0000 0.24210  0.91100  0.20320  Biso   1.000  H
  N298     1.0000 0.21304  0.88699  0.25467  Biso   1.000  N
  N299     1.0000 0.18303  0.88963  0.27740  Biso   1.000  N
  N300     1.0000 0.15288  0.89274  0.29986  Biso   1.000  N
  H201     1.0000 0.30350  0.57530  0.20600  Biso   1.000  H
  H202     1.0000 0.25790  0.58900  0.20320  Biso   1.000  H
  N301     1.0000 0.28696  0.61301  0.25467  Biso   1.000  N
  N302     1.0000 0.31697  0.61037  0.27740  Biso   1.000  N
  N303     1.0000 0.34712  0.60726  0.29986  Biso   1.000  N
  H203     1.0000 0.30350  0.07530  0.70600  Biso   1.000  H
  H204     1.0000 0.25790  0.08900  0.70320  Biso   1.000  H
  N304     1.0000 0.28696  0.11301  0.75467  Biso   1.000  N
  N305     1.0000 0.31697  0.11037  0.77740  Biso   1.000  N
  N306     1.0000 0.34712  0.10726  0.79986  Biso   1.000  N
  H205     1.0000 0.80350  0.57530  0.70600  Biso   1.000  H
  H206     1.0000 0.75790  0.58900  0.70320  Biso   1.000  H
  N307     1.0000 0.78696  0.61301  0.75467  Biso   1.000  N
  N308     1.0000 0.81697  0.61037  0.77740  Biso   1.000  N
  N309     1.0000 0.84712  0.60726  0.79986  Biso   1.000  N
  H207     1.0000 0.80350  0.07530  0.20600  Biso   1.000  H
  H208     1.0000 0.75790  0.08900  0.20320  Biso   1.000  H
  N310     1.0000 0.78696  0.11301  0.25467  Biso   1.000  N
  N311     1.0000 0.81697  0.11037  0.27740  Biso   1.000  N
  N312     1.0000 0.84712  0.10726  0.29986  Biso   1.000  N
  H209     1.0000 0.30350  0.42470  0.79400  Biso   1.000  H
  H210     1.0000 0.25790  0.41100  0.79680  Biso   1.000  H
  N313     1.0000 0.28696  0.38699  0.74533  Biso   1.000  N
  N314     1.0000 0.31697  0.38963  0.72260  Biso   1.000  N
  N315     1.0000 0.34712  0.39274  0.70014  Biso   1.000  N
  H211     1.0000 0.30350  0.92470  0.29400  Biso   1.000  H
  H212     1.0000 0.25790  0.91100  0.29680  Biso   1.000  H
  N316     1.0000 0.28696  0.88699  0.24533  Biso   1.000  N
  N317     1.0000 0.31697  0.88963  0.22260  Biso   1.000  N
  N318     1.0000 0.34712  0.89274  0.20014  Biso   1.000  N
  H213     1.0000 0.80350  0.42470  0.29400  Biso   1.000  H
  H214     1.0000 0.75790  0.41100  0.29680  Biso   1.000  H
  N319     1.0000 0.78696  0.38699  0.24533  Biso   1.000  N
  N320     1.0000 0.81697  0.38963  0.22260  Biso   1.000  N
  N321     1.0000 0.84712  0.39274  0.20014  Biso   1.000  N
  H215     1.0000 0.80350  0.92470  0.79400  Biso   1.000  H
  H216     1.0000 0.75790  0.91100  0.79680  Biso   1.000  H
  N322     1.0000 0.78696  0.88699  0.74533  Biso   1.000  N
  N323     1.0000 0.81697  0.88963  0.72260  Biso   1.000  N
  N324     1.0000 0.84712  0.89274  0.70014  Biso   1.000  N
  H217     1.0000 0.69650  0.57530  0.79400  Biso   1.000  H
  H218     1.0000 0.74210  0.58900  0.79680  Biso   1.000  H
  N325     1.0000 0.71304  0.61301  0.74533  Biso   1.000  N
  N326     1.0000 0.68303  0.61037  0.72260  Biso   1.000  N
  N327     1.0000 0.65288  0.60726  0.70014  Biso   1.000  N
  H219     1.0000 0.69650  0.07530  0.29400  Biso   1.000  H
  H220     1.0000 0.74210  0.08900  0.29680  Biso   1.000  H
  N328     1.0000 0.71304  0.11301  0.24533  Biso   1.000  N
  N329     1.0000 0.68303  0.11037  0.22260  Biso   1.000  N
  N330     1.0000 0.65288  0.10726  0.20014  Biso   1.000  N
  H221     1.0000 0.19650  0.57530  0.29400  Biso   1.000  H
  H222     1.0000 0.24210  0.58900  0.29680  Biso   1.000  H
  N331     1.0000 0.21304  0.61301  0.24533  Biso   1.000  N
  N332     1.0000 0.18303  0.61037  0.22260  Biso   1.000  N
  N333     1.0000 0.15288  0.60726  0.20014  Biso   1.000  N
  H223     1.0000 0.19650  0.07530  0.79400  Biso   1.000  H
  H224     1.0000 0.24210  0.08900  0.79680  Biso   1.000  H
  N334     1.0000 0.21304  0.11301  0.74533  Biso   1.000  N
  N335     1.0000 0.18303  0.11037  0.72260  Biso   1.000  N
  N336     1.0000 0.15288  0.10726  0.70014  Biso   1.000  N
  H225     1.0000 0.20600  0.69650  0.42470  Biso   1.000  H
  H226     1.0000 0.20320  0.74210  0.41100  Biso   1.000  H
  N337     1.0000 0.25467  0.71304  0.38699  Biso   1.000  N
  N338     1.0000 0.27740  0.68303  0.38963  Biso   1.000  N
  N339     1.0000 0.29986  0.65288  0.39274  Biso   1.000  N
  H227     1.0000 0.20600  0.19650  0.92470  Biso   1.000  H
  H228     1.0000 0.20320  0.24210  0.91100  Biso   1.000  H
  N340     1.0000 0.25467  0.21304  0.88699  Biso   1.000  N
  N341     1.0000 0.27740  0.18303  0.88963  Biso   1.000  N
  N342     1.0000 0.29986  0.15288  0.89274  Biso   1.000  N
  H229     1.0000 0.70600  0.69650  0.92470  Biso   1.000  H
  H230     1.0000 0.70320  0.74210  0.91100  Biso   1.000  H
  N343     1.0000 0.75467  0.71304  0.88699  Biso   1.000  N
  N344     1.0000 0.77740  0.68303  0.88963  Biso   1.000  N
  N345     1.0000 0.79986  0.65288  0.89274  Biso   1.000  N
  H231     1.0000 0.70600  0.19650  0.42470  Biso   1.000  H
  H232     1.0000 0.70320  0.24210  0.41100  Biso   1.000  H
  N346     1.0000 0.75467  0.21304  0.38699  Biso   1.000  N
  N347     1.0000 0.77740  0.18303  0.38963  Biso   1.000  N
  N348     1.0000 0.79986  0.15288  0.39274  Biso   1.000  N
  H233     1.0000 0.20600  0.30350  0.57530  Biso   1.000  H
  H234     1.0000 0.20320  0.25790  0.58900  Biso   1.000  H
  N349     1.0000 0.25467  0.28696  0.61301  Biso   1.000  N
  N350     1.0000 0.27740  0.31697  0.61037  Biso   1.000  N
  N351     1.0000 0.29986  0.34712  0.60726  Biso   1.000  N
  H235     1.0000 0.20600  0.80350  0.07530  Biso   1.000  H
  H236     1.0000 0.20320  0.75790  0.08900  Biso   1.000  H
  N352     1.0000 0.25467  0.78696  0.11301  Biso   1.000  N
  N353     1.0000 0.27740  0.81697  0.11037  Biso   1.000  N
  N354     1.0000 0.29986  0.84712  0.10726  Biso   1.000  N
  H237     1.0000 0.70600  0.30350  0.07530  Biso   1.000  H
  H238     1.0000 0.70320  0.25790  0.08900  Biso   1.000  H
  N355     1.0000 0.75467  0.28696  0.11301  Biso   1.000  N
  N356     1.0000 0.77740  0.31697  0.11037  Biso   1.000  N
  N357     1.0000 0.79986  0.34712  0.10726  Biso   1.000  N
  H239     1.0000 0.70600  0.80350  0.57530  Biso   1.000  H
  H240     1.0000 0.70320  0.75790  0.58900  Biso   1.000  H
  N358     1.0000 0.75467  0.78696  0.61301  Biso   1.000  N
  N359     1.0000 0.77740  0.81697  0.61037  Biso   1.000  N
  N360     1.0000 0.79986  0.84712  0.60726  Biso   1.000  N
  H241     1.0000 0.79400  0.30350  0.42470  Biso   1.000  H
  H242     1.0000 0.79680  0.25790  0.41100  Biso   1.000  H
  N361     1.0000 0.74533  0.28696  0.38699  Biso   1.000  N
  N362     1.0000 0.72260  0.31697  0.38963  Biso   1.000  N
  N363     1.0000 0.70014  0.34712  0.39274  Biso   1.000  N
  H243     1.0000 0.79400  0.80350  0.92470  Biso   1.000  H
  H244     1.0000 0.79680  0.75790  0.91100  Biso   1.000  H
  N364     1.0000 0.74533  0.78696  0.88699  Biso   1.000  N
  N365     1.0000 0.72260  0.81697  0.88963  Biso   1.000  N
  N366     1.0000 0.70014  0.84712  0.89274  Biso   1.000  N
  H245     1.0000 0.29400  0.30350  0.92470  Biso   1.000  H
  H246     1.0000 0.29680  0.25790  0.91100  Biso   1.000  H
  N367     1.0000 0.24533  0.28696  0.88699  Biso   1.000  N
  N368     1.0000 0.22260  0.31697  0.88963  Biso   1.000  N
  N369     1.0000 0.20014  0.34712  0.89274  Biso   1.000  N
  H247     1.0000 0.29400  0.80350  0.42470  Biso   1.000  H
  H248     1.0000 0.29680  0.75790  0.41100  Biso   1.000  H
  N370     1.0000 0.24533  0.78696  0.38699  Biso   1.000  N
  N371     1.0000 0.22260  0.81697  0.38963  Biso   1.000  N
  N372     1.0000 0.20014  0.84712  0.39274  Biso   1.000  N
  H249     1.0000 0.79400  0.69650  0.57530  Biso   1.000  H
  H250     1.0000 0.79680  0.74210  0.58900  Biso   1.000  H
  N373     1.0000 0.74533  0.71304  0.61301  Biso   1.000  N
  N374     1.0000 0.72260  0.68303  0.61037  Biso   1.000  N
  N375     1.0000 0.70014  0.65288  0.60726  Biso   1.000  N
  H251     1.0000 0.79400  0.19650  0.07530  Biso   1.000  H
  H252     1.0000 0.79680  0.24210  0.08900  Biso   1.000  H
  N376     1.0000 0.74533  0.21304  0.11301  Biso   1.000  N
  N377     1.0000 0.72260  0.18303  0.11037  Biso   1.000  N
  N378     1.0000 0.70014  0.15288  0.10726  Biso   1.000  N
  H253     1.0000 0.29400  0.69650  0.07530  Biso   1.000  H
  H254     1.0000 0.29680  0.74210  0.08900  Biso   1.000  H
  N379     1.0000 0.24533  0.71304  0.11301  Biso   1.000  N
  N380     1.0000 0.22260  0.68303  0.11037  Biso   1.000  N
  N381     1.0000 0.20014  0.65288  0.10726  Biso   1.000  N
  H255     1.0000 0.29400  0.19650  0.57530  Biso   1.000  H
  H256     1.0000 0.29680  0.24210  0.58900  Biso   1.000  H
  N382     1.0000 0.24533  0.21304  0.61301  Biso   1.000  N
  N383     1.0000 0.22260  0.18303  0.61037  Biso   1.000  N
  N384     1.0000 0.20014  0.15288  0.60726  Biso   1.000  N
  H257     1.0000 0.42470  0.20600  0.69650  Biso   1.000  H
  H258     1.0000 0.41100  0.20320  0.74210  Biso   1.000  H
  N385     1.0000 0.38699  0.25467  0.71304  Biso   1.000  N
  N386     1.0000 0.38963  0.27740  0.68303  Biso   1.000  N
  N387     1.0000 0.39274  0.29986  0.65288  Biso   1.000  N
  H259     1.0000 0.42470  0.70600  0.19650  Biso   1.000  H
  H260     1.0000 0.41100  0.70320  0.24210  Biso   1.000  H
  N388     1.0000 0.38699  0.75467  0.21304  Biso   1.000  N
  N389     1.0000 0.38963  0.77740  0.18303  Biso   1.000  N
  N390     1.0000 0.39274  0.79986  0.15288  Biso   1.000  N
  H261     1.0000 0.92470  0.20600  0.19650  Biso   1.000  H
  H262     1.0000 0.91100  0.20320  0.24210  Biso   1.000  H
  N391     1.0000 0.88699  0.25467  0.21304  Biso   1.000  N
  N392     1.0000 0.88963  0.27740  0.18303  Biso   1.000  N
  N393     1.0000 0.89274  0.29986  0.15288  Biso   1.000  N
  H263     1.0000 0.92470  0.70600  0.69650  Biso   1.000  H
  H264     1.0000 0.91100  0.70320  0.74210  Biso   1.000  H
  N394     1.0000 0.88699  0.75467  0.71304  Biso   1.000  N
  N395     1.0000 0.88963  0.77740  0.68303  Biso   1.000  N
  N396     1.0000 0.89274  0.79986  0.65288  Biso   1.000  N
  H265     1.0000 0.57530  0.20600  0.30350  Biso   1.000  H
  H266     1.0000 0.58900  0.20320  0.25790  Biso   1.000  H
  N397     1.0000 0.61301  0.25467  0.28696  Biso   1.000  N
  N398     1.0000 0.61037  0.27740  0.31697  Biso   1.000  N
  N399     1.0000 0.60726  0.29986  0.34712  Biso   1.000  N
  H267     1.0000 0.57530  0.70600  0.80350  Biso   1.000  H
  H268     1.0000 0.58900  0.70320  0.75790  Biso   1.000  H
  N400     1.0000 0.61301  0.75467  0.78696  Biso   1.000  N
  N401     1.0000 0.61037  0.77740  0.81697  Biso   1.000  N
  N402     1.0000 0.60726  0.79986  0.84712  Biso   1.000  N
  H269     1.0000 0.07530  0.20600  0.80350  Biso   1.000  H
  H270     1.0000 0.08900  0.20320  0.75790  Biso   1.000  H
  N403     1.0000 0.11301  0.25467  0.78696  Biso   1.000  N
  N404     1.0000 0.11037  0.27740  0.81697  Biso   1.000  N
  N405     1.0000 0.10726  0.29986  0.84712  Biso   1.000  N
  H271     1.0000 0.07530  0.70600  0.30350  Biso   1.000  H
  H272     1.0000 0.08900  0.70320  0.25790  Biso   1.000  H
  N406     1.0000 0.11301  0.75467  0.28696  Biso   1.000  N
  N407     1.0000 0.11037  0.77740  0.31697  Biso   1.000  N
  N408     1.0000 0.10726  0.79986  0.34712  Biso   1.000  N
  H273     1.0000 0.42470  0.79400  0.30350  Biso   1.000  H
  H274     1.0000 0.41100  0.79680  0.25790  Biso   1.000  H
  N409     1.0000 0.38699  0.74533  0.28696  Biso   1.000  N
  N410     1.0000 0.38963  0.72260  0.31697  Biso   1.000  N
  N411     1.0000 0.39274  0.70014  0.34712  Biso   1.000  N
  H275     1.0000 0.42470  0.29400  0.80350  Biso   1.000  H
  H276     1.0000 0.41100  0.29680  0.75790  Biso   1.000  H
  N412     1.0000 0.38699  0.24533  0.78696  Biso   1.000  N
  N413     1.0000 0.38963  0.22260  0.81697  Biso   1.000  N
  N414     1.0000 0.39274  0.20014  0.84712  Biso   1.000  N
  H277     1.0000 0.92470  0.79400  0.80350  Biso   1.000  H
  H278     1.0000 0.91100  0.79680  0.75790  Biso   1.000  H
  N415     1.0000 0.88699  0.74533  0.78696  Biso   1.000  N
  N416     1.0000 0.88963  0.72260  0.81697  Biso   1.000  N
  N417     1.0000 0.89274  0.70014  0.84712  Biso   1.000  N
  H279     1.0000 0.92470  0.29400  0.30350  Biso   1.000  H
  H280     1.0000 0.91100  0.29680  0.25790  Biso   1.000  H
  N418     1.0000 0.88699  0.24533  0.28696  Biso   1.000  N
  N419     1.0000 0.88963  0.22260  0.31697  Biso   1.000  N
  N420     1.0000 0.89274  0.20014  0.34712  Biso   1.000  N
  H281     1.0000 0.57530  0.79400  0.69650  Biso   1.000  H
  H282     1.0000 0.58900  0.79680  0.74210  Biso   1.000  H
  N421     1.0000 0.61301  0.74533  0.71304  Biso   1.000  N
  N422     1.0000 0.61037  0.72260  0.68303  Biso   1.000  N
  N423     1.0000 0.60726  0.70014  0.65288  Biso   1.000  N
  H283     1.0000 0.57530  0.29400  0.19650  Biso   1.000  H
  H284     1.0000 0.58900  0.29680  0.24210  Biso   1.000  H
  N424     1.0000 0.61301  0.24533  0.21304  Biso   1.000  N
  N425     1.0000 0.61037  0.22260  0.18303  Biso   1.000  N
  N426     1.0000 0.60726  0.20014  0.15288  Biso   1.000  N
  H285     1.0000 0.07530  0.79400  0.19650  Biso   1.000  H
  H286     1.0000 0.08900  0.79680  0.24210  Biso   1.000  H
  N427     1.0000 0.11301  0.74533  0.21304  Biso   1.000  N
  N428     1.0000 0.11037  0.72260  0.18303  Biso   1.000  N
  N429     1.0000 0.10726  0.70014  0.15288  Biso   1.000  N
  H287     1.0000 0.07530  0.29400  0.69650  Biso   1.000  H
  H288     1.0000 0.08900  0.29680  0.74210  Biso   1.000  H
  N430     1.0000 0.11301  0.24533  0.71304  Biso   1.000  N
  N431     1.0000 0.11037  0.22260  0.68303  Biso   1.000  N
  N432     1.0000 0.10726  0.20014  0.65288  Biso   1.000  N
  H289     1.0000 0.42470  0.69650  0.79400  Biso   1.000  H
  H290     1.0000 0.41100  0.74210  0.79680  Biso   1.000  H
  N433     1.0000 0.38699  0.71304  0.74533  Biso   1.000  N
  N434     1.0000 0.38963  0.68303  0.72260  Biso   1.000  N
  N435     1.0000 0.39274  0.65288  0.70014  Biso   1.000  N
  H291     1.0000 0.42470  0.19650  0.29400  Biso   1.000  H
  H292     1.0000 0.41100  0.24210  0.29680  Biso   1.000  H
  N436     1.0000 0.38699  0.21304  0.24533  Biso   1.000  N
  N437     1.0000 0.38963  0.18303  0.22260  Biso   1.000  N
  N438     1.0000 0.39274  0.15288  0.20014  Biso   1.000  N
  H293     1.0000 0.92470  0.69650  0.29400  Biso   1.000  H
  H294     1.0000 0.91100  0.74210  0.29680  Biso   1.000  H
  N439     1.0000 0.88699  0.71304  0.24533  Biso   1.000  N
  N440     1.0000 0.88963  0.68303  0.22260  Biso   1.000  N
  N441     1.0000 0.89274  0.65288  0.20014  Biso   1.000  N
  H295     1.0000 0.92470  0.19650  0.79400  Biso   1.000  H
  H296     1.0000 0.91100  0.24210  0.79680  Biso   1.000  H
  N442     1.0000 0.88699  0.21304  0.74533  Biso   1.000  N
  N443     1.0000 0.88963  0.18303  0.72260  Biso   1.000  N
  N444     1.0000 0.89274  0.15288  0.70014  Biso   1.000  N
  H297     1.0000 0.57530  0.30350  0.79400  Biso   1.000  H
  H298     1.0000 0.58900  0.25790  0.79680  Biso   1.000  H
  N445     1.0000 0.61301  0.28696  0.74533  Biso   1.000  N
  N446     1.0000 0.61037  0.31697  0.72260  Biso   1.000  N
  N447     1.0000 0.60726  0.34712  0.70014  Biso   1.000  N
  H299     1.0000 0.57530  0.80350  0.29400  Biso   1.000  H
  H300     1.0000 0.58900  0.75790  0.29680  Biso   1.000  H
  N448     1.0000 0.61301  0.78696  0.24533  Biso   1.000  N
  N449     1.0000 0.61037  0.81697  0.22260  Biso   1.000  N
  N450     1.0000 0.60726  0.84712  0.20014  Biso   1.000  N
  H301     1.0000 0.07530  0.30350  0.29400  Biso   1.000  H
  H302     1.0000 0.08900  0.25790  0.29680  Biso   1.000  H
  N451     1.0000 0.11301  0.28696  0.24533  Biso   1.000  N
  N452     1.0000 0.11037  0.31697  0.22260  Biso   1.000  N
  N453     1.0000 0.10726  0.34712  0.20014  Biso   1.000  N
  H303     1.0000 0.07530  0.80350  0.79400  Biso   1.000  H
  H304     1.0000 0.08900  0.75790  0.79680  Biso   1.000  H
  N454     1.0000 0.11301  0.78696  0.74533  Biso   1.000  N
  N455     1.0000 0.11037  0.81697  0.72260  Biso   1.000  N
  N456     1.0000 0.10726  0.84712  0.70014  Biso   1.000  N
  H305     1.0000 0.42470  0.30350  0.20600  Biso   1.000  H
  H306     1.0000 0.41100  0.25790  0.20320  Biso   1.000  H
  N457     1.0000 0.38699  0.28696  0.25467  Biso   1.000  N
  N458     1.0000 0.38963  0.31697  0.27740  Biso   1.000  N
  N459     1.0000 0.39274  0.34712  0.29986  Biso   1.000  N
  H307     1.0000 0.42470  0.80350  0.70600  Biso   1.000  H
  H308     1.0000 0.41100  0.75790  0.70320  Biso   1.000  H
  N460     1.0000 0.38699  0.78696  0.75467  Biso   1.000  N
  N461     1.0000 0.38963  0.81697  0.77740  Biso   1.000  N
  N462     1.0000 0.39274  0.84712  0.79986  Biso   1.000  N
  H309     1.0000 0.92470  0.30350  0.70600  Biso   1.000  H
  H310     1.0000 0.91100  0.25790  0.70320  Biso   1.000  H
  N463     1.0000 0.88699  0.28696  0.75467  Biso   1.000  N
  N464     1.0000 0.88963  0.31697  0.77740  Biso   1.000  N
  N465     1.0000 0.89274  0.34712  0.79986  Biso   1.000  N
  H311     1.0000 0.92470  0.80350  0.20600  Biso   1.000  H
  H312     1.0000 0.91100  0.75790  0.20320  Biso   1.000  H
  N466     1.0000 0.88699  0.78696  0.25467  Biso   1.000  N
  N467     1.0000 0.88963  0.81697  0.27740  Biso   1.000  N
  N468     1.0000 0.89274  0.84712  0.29986  Biso   1.000  N
  H313     1.0000 0.57530  0.69650  0.20600  Biso   1.000  H
  H314     1.0000 0.58900  0.74210  0.20320  Biso   1.000  H
  N469     1.0000 0.61301  0.71304  0.25467  Biso   1.000  N
  N470     1.0000 0.61037  0.68303  0.27740  Biso   1.000  N
  N471     1.0000 0.60726  0.65288  0.29986  Biso   1.000  N
  H315     1.0000 0.57530  0.19650  0.70600  Biso   1.000  H
  H316     1.0000 0.58900  0.24210  0.70320  Biso   1.000  H
  N472     1.0000 0.61301  0.21304  0.75467  Biso   1.000  N
  N473     1.0000 0.61037  0.18303  0.77740  Biso   1.000  N
  N474     1.0000 0.60726  0.15288  0.79986  Biso   1.000  N
  H317     1.0000 0.07530  0.69650  0.70600  Biso   1.000  H
  H318     1.0000 0.08900  0.74210  0.70320  Biso   1.000  H
  N475     1.0000 0.11301  0.71304  0.75467  Biso   1.000  N
  N476     1.0000 0.11037  0.68303  0.77740  Biso   1.000  N
  N477     1.0000 0.10726  0.65288  0.79986  Biso   1.000  N
  H319     1.0000 0.07530  0.19650  0.20600  Biso   1.000  H
  H320     1.0000 0.08900  0.24210  0.20320  Biso   1.000  H
  N478     1.0000 0.11301  0.21304  0.25467  Biso   1.000  N
  N479     1.0000 0.11037  0.18303  0.27740  Biso   1.000  N
  N480     1.0000 0.10726  0.15288  0.29986  Biso   1.000  N
  H321     1.0000 0.69650  0.20600  0.57530  Biso   1.000  H
  H322     1.0000 0.74210  0.20320  0.58900  Biso   1.000  H
  N481     1.0000 0.71304  0.25467  0.61301  Biso   1.000  N
  N482     1.0000 0.68303  0.27740  0.61037  Biso   1.000  N
  N483     1.0000 0.65288  0.29986  0.60726  Biso   1.000  N
  H323     1.0000 0.69650  0.70600  0.07530  Biso   1.000  H
  H324     1.0000 0.74210  0.70320  0.08900  Biso   1.000  H
  N484     1.0000 0.71304  0.75467  0.11301  Biso   1.000  N
  N485     1.0000 0.68303  0.77740  0.11037  Biso   1.000  N
  N486     1.0000 0.65288  0.79986  0.10726  Biso   1.000  N
  H325     1.0000 0.19650  0.20600  0.07530  Biso   1.000  H
  H326     1.0000 0.24210  0.20320  0.08900  Biso   1.000  H
  N487     1.0000 0.21304  0.25467  0.11301  Biso   1.000  N
  N488     1.0000 0.18303  0.27740  0.11037  Biso   1.000  N
  N489     1.0000 0.15288  0.29986  0.10726  Biso   1.000  N
  H327     1.0000 0.19650  0.70600  0.57530  Biso   1.000  H
  H328     1.0000 0.24210  0.70320  0.58900  Biso   1.000  H
  N490     1.0000 0.21304  0.75467  0.61301  Biso   1.000  N
  N491     1.0000 0.18303  0.77740  0.61037  Biso   1.000  N
  N492     1.0000 0.15288  0.79986  0.60726  Biso   1.000  N
  H329     1.0000 0.30350  0.20600  0.42470  Biso   1.000  H
  H330     1.0000 0.25790  0.20320  0.41100  Biso   1.000  H
  N493     1.0000 0.28696  0.25467  0.38699  Biso   1.000  N
  N494     1.0000 0.31697  0.27740  0.38963  Biso   1.000  N
  N495     1.0000 0.34712  0.29986  0.39274  Biso   1.000  N
  H331     1.0000 0.30350  0.70600  0.92470  Biso   1.000  H
  H332     1.0000 0.25790  0.70320  0.91100  Biso   1.000  H
  N496     1.0000 0.28696  0.75467  0.88699  Biso   1.000  N
  N497     1.0000 0.31697  0.77740  0.88963  Biso   1.000  N
  N498     1.0000 0.34712  0.79986  0.89274  Biso   1.000  N
  H333     1.0000 0.80350  0.20600  0.92470  Biso   1.000  H
  H334     1.0000 0.75790  0.20320  0.91100  Biso   1.000  H
  N499     1.0000 0.78696  0.25467  0.88699  Biso   1.000  N
  N500     1.0000 0.81697  0.27740  0.88963  Biso   1.000  N
  N501     1.0000 0.84712  0.29986  0.89274  Biso   1.000  N
  H335     1.0000 0.80350  0.70600  0.42470  Biso   1.000  H
  H336     1.0000 0.75790  0.70320  0.41100  Biso   1.000  H
  N502     1.0000 0.78696  0.75467  0.38699  Biso   1.000  N
  N503     1.0000 0.81697  0.77740  0.38963  Biso   1.000  N
  N504     1.0000 0.84712  0.79986  0.39274  Biso   1.000  N
  H337     1.0000 0.30350  0.79400  0.57530  Biso   1.000  H
  H338     1.0000 0.25790  0.79680  0.58900  Biso   1.000  H
  N505     1.0000 0.28696  0.74533  0.61301  Biso   1.000  N
  N506     1.0000 0.31697  0.72260  0.61037  Biso   1.000  N
  N507     1.0000 0.34712  0.70014  0.60726  Biso   1.000  N
  H339     1.0000 0.30350  0.29400  0.07530  Biso   1.000  H
  H340     1.0000 0.25790  0.29680  0.08900  Biso   1.000  H
  N508     1.0000 0.28696  0.24533  0.11301  Biso   1.000  N
  N509     1.0000 0.31697  0.22260  0.11037  Biso   1.000  N
  N510     1.0000 0.34712  0.20014  0.10726  Biso   1.000  N
  H341     1.0000 0.80350  0.79400  0.07530  Biso   1.000  H
  H342     1.0000 0.75790  0.79680  0.08900  Biso   1.000  H
  N511     1.0000 0.78696  0.74533  0.11301  Biso   1.000  N
  N512     1.0000 0.81697  0.72260  0.11037  Biso   1.000  N
  N513     1.0000 0.84712  0.70014  0.10726  Biso   1.000  N
  H343     1.0000 0.80350  0.29400  0.57530  Biso   1.000  H
  H344     1.0000 0.75790  0.29680  0.58900  Biso   1.000  H
  N514     1.0000 0.78696  0.24533  0.61301  Biso   1.000  N
  N515     1.0000 0.81697  0.22260  0.61037  Biso   1.000  N
  N516     1.0000 0.84712  0.20014  0.60726  Biso   1.000  N
  H345     1.0000 0.69650  0.79400  0.42470  Biso   1.000  H
  H346     1.0000 0.74210  0.79680  0.41100  Biso   1.000  H
  N517     1.0000 0.71304  0.74533  0.38699  Biso   1.000  N
  N518     1.0000 0.68303  0.72260  0.38963  Biso   1.000  N
  N519     1.0000 0.65288  0.70014  0.39274  Biso   1.000  N
  H347     1.0000 0.69650  0.29400  0.92470  Biso   1.000  H
  H348     1.0000 0.74210  0.29680  0.91100  Biso   1.000  H
  N520     1.0000 0.71304  0.24533  0.88699  Biso   1.000  N
  N521     1.0000 0.68303  0.22260  0.88963  Biso   1.000  N
  N522     1.0000 0.65288  0.20014  0.89274  Biso   1.000  N
  H349     1.0000 0.19650  0.79400  0.92470  Biso   1.000  H
  H350     1.0000 0.24210  0.79680  0.91100  Biso   1.000  H
  N523     1.0000 0.21304  0.74533  0.88699  Biso   1.000  N
  N524     1.0000 0.18303  0.72260  0.88963  Biso   1.000  N
  N525     1.0000 0.15288  0.70014  0.89274  Biso   1.000  N
  H351     1.0000 0.19650  0.29400  0.42470  Biso   1.000  H
  H352     1.0000 0.24210  0.29680  0.41100  Biso   1.000  H
  N526     1.0000 0.21304  0.24533  0.38699  Biso   1.000  N
  N527     1.0000 0.18303  0.22260  0.38963  Biso   1.000  N
  N528     1.0000 0.15288  0.20014  0.39274  Biso   1.000  N
  H353     1.0000 0.20600  0.42470  0.30350  Biso   1.000  H
  H354     1.0000 0.20320  0.41100  0.25790  Biso   1.000  H
  N529     1.0000 0.25467  0.38699  0.28696  Biso   1.000  N
  N530     1.0000 0.27740  0.38963  0.31697  Biso   1.000  N
  N531     1.0000 0.29986  0.39274  0.34712  Biso   1.000  N
  H355     1.0000 0.20600  0.92470  0.80350  Biso   1.000  H
  H356     1.0000 0.20320  0.91100  0.75790  Biso   1.000  H
  N532     1.0000 0.25467  0.88699  0.78696  Biso   1.000  N
  N533     1.0000 0.27740  0.88963  0.81697  Biso   1.000  N
  N534     1.0000 0.29986  0.89274  0.84712  Biso   1.000  N
  H357     1.0000 0.70600  0.42470  0.80350  Biso   1.000  H
  H358     1.0000 0.70320  0.41100  0.75790  Biso   1.000  H
  N535     1.0000 0.75467  0.38699  0.78696  Biso   1.000  N
  N536     1.0000 0.77740  0.38963  0.81697  Biso   1.000  N
  N537     1.0000 0.79986  0.39274  0.84712  Biso   1.000  N
  H359     1.0000 0.70600  0.92470  0.30350  Biso   1.000  H
  H360     1.0000 0.70320  0.91100  0.25790  Biso   1.000  H
  N538     1.0000 0.75467  0.88699  0.28696  Biso   1.000  N
  N539     1.0000 0.77740  0.88963  0.31697  Biso   1.000  N
  N540     1.0000 0.79986  0.89274  0.34712  Biso   1.000  N
  H361     1.0000 0.20600  0.57530  0.69650  Biso   1.000  H
  H362     1.0000 0.20320  0.58900  0.74210  Biso   1.000  H
  N541     1.0000 0.25467  0.61301  0.71304  Biso   1.000  N
  N542     1.0000 0.27740  0.61037  0.68303  Biso   1.000  N
  N543     1.0000 0.29986  0.60726  0.65288  Biso   1.000  N
  H363     1.0000 0.20600  0.07530  0.19650  Biso   1.000  H
  H364     1.0000 0.20320  0.08900  0.24210  Biso   1.000  H
  N544     1.0000 0.25467  0.11301  0.21304  Biso   1.000  N
  N545     1.0000 0.27740  0.11037  0.18303  Biso   1.000  N
  N546     1.0000 0.29986  0.10726  0.15288  Biso   1.000  N
  H365     1.0000 0.70600  0.57530  0.19650  Biso   1.000  H
  H366     1.0000 0.70320  0.58900  0.24210  Biso   1.000  H
  N547     1.0000 0.75467  0.61301  0.21304  Biso   1.000  N
  N548     1.0000 0.77740  0.61037  0.18303  Biso   1.000  N
  N549     1.0000 0.79986  0.60726  0.15288  Biso   1.000  N
  H367     1.0000 0.70600  0.07530  0.69650  Biso   1.000  H
  H368     1.0000 0.70320  0.08900  0.74210  Biso   1.000  H
  N550     1.0000 0.75467  0.11301  0.71304  Biso   1.000  N
  N551     1.0000 0.77740  0.11037  0.68303  Biso   1.000  N
  N552     1.0000 0.79986  0.10726  0.65288  Biso   1.000  N
  H369     1.0000 0.79400  0.42470  0.69650  Biso   1.000  H
  H370     1.0000 0.79680  0.41100  0.74210  Biso   1.000  H
  N553     1.0000 0.74533  0.38699  0.71304  Biso   1.000  N
  N554     1.0000 0.72260  0.38963  0.68303  Biso   1.000  N
  N555     1.0000 0.70014  0.39274  0.65288  Biso   1.000  N
  H371     1.0000 0.79400  0.92470  0.19650  Biso   1.000  H
  H372     1.0000 0.79680  0.91100  0.24210  Biso   1.000  H
  N556     1.0000 0.74533  0.88699  0.21304  Biso   1.000  N
  N557     1.0000 0.72260  0.88963  0.18303  Biso   1.000  N
  N558     1.0000 0.70014  0.89274  0.15288  Biso   1.000  N
  H373     1.0000 0.29400  0.42470  0.19650  Biso   1.000  H
  H374     1.0000 0.29680  0.41100  0.24210  Biso   1.000  H
  N559     1.0000 0.24533  0.38699  0.21304  Biso   1.000  N
  N560     1.0000 0.22260  0.38963  0.18303  Biso   1.000  N
  N561     1.0000 0.20014  0.39274  0.15288  Biso   1.000  N
  H375     1.0000 0.29400  0.92470  0.69650  Biso   1.000  H
  H376     1.0000 0.29680  0.91100  0.74210  Biso   1.000  H
  N562     1.0000 0.24533  0.88699  0.71304  Biso   1.000  N
  N563     1.0000 0.22260  0.88963  0.68303  Biso   1.000  N
  N564     1.0000 0.20014  0.89274  0.65288  Biso   1.000  N
  H377     1.0000 0.79400  0.57530  0.30350  Biso   1.000  H
  H378     1.0000 0.79680  0.58900  0.25790  Biso   1.000  H
  N565     1.0000 0.74533  0.61301  0.28696  Biso   1.000  N
  N566     1.0000 0.72260  0.61037  0.31697  Biso   1.000  N
  N567     1.0000 0.70014  0.60726  0.34712  Biso   1.000  N
  H379     1.0000 0.79400  0.07530  0.80350  Biso   1.000  H
  H380     1.0000 0.79680  0.08900  0.75790  Biso   1.000  H
  N568     1.0000 0.74533  0.11301  0.78696  Biso   1.000  N
  N569     1.0000 0.72260  0.11037  0.81697  Biso   1.000  N
  N570     1.0000 0.70014  0.10726  0.84712  Biso   1.000  N
  H381     1.0000 0.29400  0.57530  0.80350  Biso   1.000  H
  H382     1.0000 0.29680  0.58900  0.75790  Biso   1.000  H
  N571     1.0000 0.24533  0.61301  0.78696  Biso   1.000  N
  N572     1.0000 0.22260  0.61037  0.81697  Biso   1.000  N
  N573     1.0000 0.20014  0.60726  0.84712  Biso   1.000  N
  H383     1.0000 0.29400  0.07530  0.30350  Biso   1.000  H
  H384     1.0000 0.29680  0.08900  0.25790  Biso   1.000  H
  N574     1.0000 0.24533  0.11301  0.28696  Biso   1.000  N
  N575     1.0000 0.22260  0.11037  0.31697  Biso   1.000  N
  N576     1.0000 0.20014  0.10726  0.34712  Biso   1.000  N
  Zr1      1.0000 0.42475  0.50000  0.00000  Biso   1.000  Zr
  Zr2      1.0000 0.92475  0.50000  0.50000  Biso   1.000  Zr
  Zr3      1.0000 0.57525  0.50000  0.00000  Biso   1.000  Zr
  Zr4      1.0000 0.07525  0.50000  0.50000  Biso   1.000  Zr
  Zr5      1.0000 0.00000  0.42475  0.50000  Biso   1.000  Zr
  Zr6      1.0000 0.00000  0.92475  0.00000  Biso   1.000  Zr
  Zr7      1.0000 0.00000  0.57525  0.50000  Biso   1.000  Zr
  Zr8      1.0000 0.00000  0.07525  0.00000  Biso   1.000  Zr
  Zr9      1.0000 0.50000  0.00000  0.42475  Biso   1.000  Zr
  Zr10     1.0000 0.50000  0.50000  0.92475  Biso   1.000  Zr
  Zr11     1.0000 0.50000  0.00000  0.57525  Biso   1.000  Zr
  Zr12     1.0000 0.50000  0.50000  0.07525  Biso   1.000  Zr
  Zr13     1.0000 0.50000  0.42475  0.00000  Biso   1.000  Zr
  Zr14     1.0000 0.50000  0.92475  0.50000  Biso   1.000  Zr
  Zr15     1.0000 0.50000  0.57525  0.00000  Biso   1.000  Zr
  Zr16     1.0000 0.50000  0.07525  0.50000  Biso   1.000  Zr
  Zr17     1.0000 0.42475  0.00000  0.50000  Biso   1.000  Zr
  Zr18     1.0000 0.92475  0.00000  0.00000  Biso   1.000  Zr
  Zr19     1.0000 0.57525  0.00000  0.50000  Biso   1.000  Zr
  Zr20     1.0000 0.07525  0.00000  0.00000  Biso   1.000  Zr
  Zr21     1.0000 0.00000  0.50000  0.57525  Biso   1.000  Zr
  Zr22     1.0000 0.00000  0.00000  0.07525  Biso   1.000  Zr
  Zr23     1.0000 0.00000  0.50000  0.42475  Biso   1.000  Zr
  Zr24     1.0000 0.00000  0.00000  0.92475  Biso   1.000  Zr
  O1       1.0000 0.39153  0.50000  0.94103  Biso   1.000  O
  C1       1.0000 0.38293  0.50000  0.83181  Biso   1.000  C
  H385     1.0000 0.41040  0.50000  0.82440  Biso   1.000  H
  C2       1.0000 0.35289  0.50000  0.80213  Biso   1.000  C
  H386     1.0000 0.36030  0.50000  0.77470  Biso   1.000  H
  O2       1.0000 0.39153  0.00000  0.44103  Biso   1.000  O
  C3       1.0000 0.38293  0.00000  0.33181  Biso   1.000  C
  H387     1.0000 0.41040  0.00000  0.32440  Biso   1.000  H
  C4       1.0000 0.35289  0.00000  0.30213  Biso   1.000  C
  H388     1.0000 0.36030  0.00000  0.27470  Biso   1.000  H
  O3       1.0000 0.89153  0.50000  0.44103  Biso   1.000  O
  C5       1.0000 0.88293  0.50000  0.33181  Biso   1.000  C
  H389     1.0000 0.91040  0.50000  0.32440  Biso   1.000  H
  C6       1.0000 0.85289  0.50000  0.30213  Biso   1.000  C
  H390     1.0000 0.86030  0.50000  0.27470  Biso   1.000  H
  O4       1.0000 0.89153  0.00000  0.94103  Biso   1.000  O
  C7       1.0000 0.88293  0.00000  0.83181  Biso   1.000  C
  H391     1.0000 0.91040  0.00000  0.82440  Biso   1.000  H
  C8       1.0000 0.85289  0.00000  0.80213  Biso   1.000  C
  H392     1.0000 0.86030  0.00000  0.77470  Biso   1.000  H
  O5       1.0000 0.60847  0.50000  0.94103  Biso   1.000  O
  C9       1.0000 0.61707  0.50000  0.83181  Biso   1.000  C
  H393     1.0000 0.58960  0.50000  0.82440  Biso   1.000  H
  C10      1.0000 0.64711  0.50000  0.80213  Biso   1.000  C
  H394     1.0000 0.63970  0.50000  0.77470  Biso   1.000  H
  O6       1.0000 0.60847  0.00000  0.44103  Biso   1.000  O
  C11      1.0000 0.61707  0.00000  0.33181  Biso   1.000  C
  H395     1.0000 0.58960  0.00000  0.32440  Biso   1.000  H
  C12      1.0000 0.64711  0.00000  0.30213  Biso   1.000  C
  H396     1.0000 0.63970  0.00000  0.27470  Biso   1.000  H
  O7       1.0000 0.10847  0.50000  0.44103  Biso   1.000  O
  C13      1.0000 0.11707  0.50000  0.33181  Biso   1.000  C
  H397     1.0000 0.08960  0.50000  0.32440  Biso   1.000  H
  C14      1.0000 0.14711  0.50000  0.30213  Biso   1.000  C
  H398     1.0000 0.13970  0.50000  0.27470  Biso   1.000  H
  O8       1.0000 0.10847  0.00000  0.94103  Biso   1.000  O
  C15      1.0000 0.11707  0.00000  0.83181  Biso   1.000  C
  H399     1.0000 0.08960  0.00000  0.82440  Biso   1.000  H
  C16      1.0000 0.14711  0.00000  0.80213  Biso   1.000  C
  H400     1.0000 0.13970  0.00000  0.77470  Biso   1.000  H
  O9       1.0000 0.60847  0.50000  0.05897  Biso   1.000  O
  C17      1.0000 0.61707  0.50000  0.16819  Biso   1.000  C
  H401     1.0000 0.58960  0.50000  0.17560  Biso   1.000  H
  C18      1.0000 0.64711  0.50000  0.19787  Biso   1.000  C
  H402     1.0000 0.63970  0.50000  0.22530  Biso   1.000  H
  O10      1.0000 0.60847  0.00000  0.55897  Biso   1.000  O
  C19      1.0000 0.61707  0.00000  0.66819  Biso   1.000  C
  H403     1.0000 0.58960  0.00000  0.67560  Biso   1.000  H
  C20      1.0000 0.64711  0.00000  0.69787  Biso   1.000  C
  H404     1.0000 0.63970  0.00000  0.72530  Biso   1.000  H
  O11      1.0000 0.10847  0.50000  0.55897  Biso   1.000  O
  C21      1.0000 0.11707  0.50000  0.66819  Biso   1.000  C
  H405     1.0000 0.08960  0.50000  0.67560  Biso   1.000  H
  C22      1.0000 0.14711  0.50000  0.69787  Biso   1.000  C
  H406     1.0000 0.13970  0.50000  0.72530  Biso   1.000  H
  O12      1.0000 0.10847  0.00000  0.05897  Biso   1.000  O
  C23      1.0000 0.11707  0.00000  0.16819  Biso   1.000  C
  H407     1.0000 0.08960  0.00000  0.17560  Biso   1.000  H
  C24      1.0000 0.14711  0.00000  0.19787  Biso   1.000  C
  H408     1.0000 0.13970  0.00000  0.22530  Biso   1.000  H
  O13      1.0000 0.39153  0.50000  0.05897  Biso   1.000  O
  C25      1.0000 0.38293  0.50000  0.16819  Biso   1.000  C
  H409     1.0000 0.41040  0.50000  0.17560  Biso   1.000  H
  C26      1.0000 0.35289  0.50000  0.19787  Biso   1.000  C
  H410     1.0000 0.36030  0.50000  0.22530  Biso   1.000  H
  O14      1.0000 0.39153  0.00000  0.55897  Biso   1.000  O
  C27      1.0000 0.38293  0.00000  0.66819  Biso   1.000  C
  H411     1.0000 0.41040  0.00000  0.67560  Biso   1.000  H
  C28      1.0000 0.35289  0.00000  0.69787  Biso   1.000  C
  H412     1.0000 0.36030  0.00000  0.72530  Biso   1.000  H
  O15      1.0000 0.89153  0.50000  0.55897  Biso   1.000  O
  C29      1.0000 0.88293  0.50000  0.66819  Biso   1.000  C
  H413     1.0000 0.91040  0.50000  0.67560  Biso   1.000  H
  C30      1.0000 0.85289  0.50000  0.69787  Biso   1.000  C
  H414     1.0000 0.86030  0.50000  0.72530  Biso   1.000  H
  O16      1.0000 0.89153  0.00000  0.05897  Biso   1.000  O
  C31      1.0000 0.88293  0.00000  0.16819  Biso   1.000  C
  H415     1.0000 0.91040  0.00000  0.17560  Biso   1.000  H
  C32      1.0000 0.85289  0.00000  0.19787  Biso   1.000  C
  H416     1.0000 0.86030  0.00000  0.22530  Biso   1.000  H
  O17      1.0000 0.94103  0.39153  0.50000  Biso   1.000  O
  C33      1.0000 0.83181  0.38293  0.50000  Biso   1.000  C
  H417     1.0000 0.82440  0.41040  0.50000  Biso   1.000  H
  C34      1.0000 0.80213  0.35289  0.50000  Biso   1.000  C
  H418     1.0000 0.77470  0.36030  0.50000  Biso   1.000  H
  O18      1.0000 0.94103  0.89153  0.00000  Biso   1.000  O
  C35      1.0000 0.83181  0.88293  0.00000  Biso   1.000  C
  H419     1.0000 0.82440  0.91040  0.00000  Biso   1.000  H
  C36      1.0000 0.80213  0.85289  0.00000  Biso   1.000  C
  H420     1.0000 0.77470  0.86030  0.00000  Biso   1.000  H
  O19      1.0000 0.44103  0.39153  0.00000  Biso   1.000  O
  C37      1.0000 0.33181  0.38293  0.00000  Biso   1.000  C
  H421     1.0000 0.32440  0.41040  0.00000  Biso   1.000  H
  C38      1.0000 0.30213  0.35289  0.00000  Biso   1.000  C
  H422     1.0000 0.27470  0.36030  0.00000  Biso   1.000  H
  O20      1.0000 0.44103  0.89153  0.50000  Biso   1.000  O
  C39      1.0000 0.33181  0.88293  0.50000  Biso   1.000  C
  H423     1.0000 0.32440  0.91040  0.50000  Biso   1.000  H
  C40      1.0000 0.30213  0.85289  0.50000  Biso   1.000  C
  H424     1.0000 0.27470  0.86030  0.50000  Biso   1.000  H
  O21      1.0000 0.94103  0.60847  0.50000  Biso   1.000  O
  C41      1.0000 0.83181  0.61707  0.50000  Biso   1.000  C
  H425     1.0000 0.82440  0.58960  0.50000  Biso   1.000  H
  C42      1.0000 0.80213  0.64711  0.50000  Biso   1.000  C
  H426     1.0000 0.77470  0.63970  0.50000  Biso   1.000  H
  O22      1.0000 0.94103  0.10847  0.00000  Biso   1.000  O
  C43      1.0000 0.83181  0.11707  0.00000  Biso   1.000  C
  H427     1.0000 0.82440  0.08960  0.00000  Biso   1.000  H
  C44      1.0000 0.80213  0.14711  0.00000  Biso   1.000  C
  H428     1.0000 0.77470  0.13970  0.00000  Biso   1.000  H
  O23      1.0000 0.44103  0.60847  0.00000  Biso   1.000  O
  C45      1.0000 0.33181  0.61707  0.00000  Biso   1.000  C
  H429     1.0000 0.32440  0.58960  0.00000  Biso   1.000  H
  C46      1.0000 0.30213  0.64711  0.00000  Biso   1.000  C
  H430     1.0000 0.27470  0.63970  0.00000  Biso   1.000  H
  O24      1.0000 0.44103  0.10847  0.50000  Biso   1.000  O
  C47      1.0000 0.33181  0.11707  0.50000  Biso   1.000  C
  H431     1.0000 0.32440  0.08960  0.50000  Biso   1.000  H
  C48      1.0000 0.30213  0.14711  0.50000  Biso   1.000  C
  H432     1.0000 0.27470  0.13970  0.50000  Biso   1.000  H
  O25      1.0000 0.05897  0.60847  0.50000  Biso   1.000  O
  C49      1.0000 0.16819  0.61707  0.50000  Biso   1.000  C
  H433     1.0000 0.17560  0.58960  0.50000  Biso   1.000  H
  C50      1.0000 0.19787  0.64711  0.50000  Biso   1.000  C
  H434     1.0000 0.22530  0.63970  0.50000  Biso   1.000  H
  O26      1.0000 0.05897  0.10847  0.00000  Biso   1.000  O
  C51      1.0000 0.16819  0.11707  0.00000  Biso   1.000  C
  H435     1.0000 0.17560  0.08960  0.00000  Biso   1.000  H
  C52      1.0000 0.19787  0.14711  0.00000  Biso   1.000  C
  H436     1.0000 0.22530  0.13970  0.00000  Biso   1.000  H
  O27      1.0000 0.55897  0.60847  0.00000  Biso   1.000  O
  C53      1.0000 0.66819  0.61707  0.00000  Biso   1.000  C
  H437     1.0000 0.67560  0.58960  0.00000  Biso   1.000  H
  C54      1.0000 0.69787  0.64711  0.00000  Biso   1.000  C
  H438     1.0000 0.72530  0.63970  0.00000  Biso   1.000  H
  O28      1.0000 0.55897  0.10847  0.50000  Biso   1.000  O
  C55      1.0000 0.66819  0.11707  0.50000  Biso   1.000  C
  H439     1.0000 0.67560  0.08960  0.50000  Biso   1.000  H
  C56      1.0000 0.69787  0.14711  0.50000  Biso   1.000  C
  H440     1.0000 0.72530  0.13970  0.50000  Biso   1.000  H
  O29      1.0000 0.05897  0.39153  0.50000  Biso   1.000  O
  C57      1.0000 0.16819  0.38293  0.50000  Biso   1.000  C
  H441     1.0000 0.17560  0.41040  0.50000  Biso   1.000  H
  C58      1.0000 0.19787  0.35289  0.50000  Biso   1.000  C
  H442     1.0000 0.22530  0.36030  0.50000  Biso   1.000  H
  O30      1.0000 0.05897  0.89153  0.00000  Biso   1.000  O
  C59      1.0000 0.16819  0.88293  0.00000  Biso   1.000  C
  H443     1.0000 0.17560  0.91040  0.00000  Biso   1.000  H
  C60      1.0000 0.19787  0.85289  0.00000  Biso   1.000  C
  H444     1.0000 0.22530  0.86030  0.00000  Biso   1.000  H
  O31      1.0000 0.55897  0.39153  0.00000  Biso   1.000  O
  C61      1.0000 0.66819  0.38293  0.00000  Biso   1.000  C
  H445     1.0000 0.67560  0.41040  0.00000  Biso   1.000  H
  C62      1.0000 0.69787  0.35289  0.00000  Biso   1.000  C
  H446     1.0000 0.72530  0.36030  0.00000  Biso   1.000  H
  O32      1.0000 0.55897  0.89153  0.50000  Biso   1.000  O
  C63      1.0000 0.66819  0.88293  0.50000  Biso   1.000  C
  H447     1.0000 0.67560  0.91040  0.50000  Biso   1.000  H
  C64      1.0000 0.69787  0.85289  0.50000  Biso   1.000  C
  H448     1.0000 0.72530  0.86030  0.50000  Biso   1.000  H
  O33      1.0000 0.50000  0.94103  0.39153  Biso   1.000  O
  C65      1.0000 0.50000  0.83181  0.38293  Biso   1.000  C
  H449     1.0000 0.50000  0.82440  0.41040  Biso   1.000  H
  C66      1.0000 0.50000  0.80213  0.35289  Biso   1.000  C
  H450     1.0000 0.50000  0.77470  0.36030  Biso   1.000  H
  O34      1.0000 0.50000  0.44103  0.89153  Biso   1.000  O
  C67      1.0000 0.50000  0.33181  0.88293  Biso   1.000  C
  H451     1.0000 0.50000  0.32440  0.91040  Biso   1.000  H
  C68      1.0000 0.50000  0.30213  0.85289  Biso   1.000  C
  H452     1.0000 0.50000  0.27470  0.86030  Biso   1.000  H
  O35      1.0000 0.00000  0.94103  0.89153  Biso   1.000  O
  C69      1.0000 0.00000  0.83181  0.88293  Biso   1.000  C
  H453     1.0000 0.00000  0.82440  0.91040  Biso   1.000  H
  C70      1.0000 0.00000  0.80213  0.85289  Biso   1.000  C
  H454     1.0000 0.00000  0.77470  0.86030  Biso   1.000  H
  O36      1.0000 0.00000  0.44103  0.39153  Biso   1.000  O
  C71      1.0000 0.00000  0.33181  0.38293  Biso   1.000  C
  H455     1.0000 0.00000  0.32440  0.41040  Biso   1.000  H
  C72      1.0000 0.00000  0.30213  0.35289  Biso   1.000  C
  H456     1.0000 0.00000  0.27470  0.36030  Biso   1.000  H
  O37      1.0000 0.50000  0.94103  0.60847  Biso   1.000  O
  C73      1.0000 0.50000  0.83181  0.61707  Biso   1.000  C
  H457     1.0000 0.50000  0.82440  0.58960  Biso   1.000  H
  C74      1.0000 0.50000  0.80213  0.64711  Biso   1.000  C
  H458     1.0000 0.50000  0.77470  0.63970  Biso   1.000  H
  O38      1.0000 0.50000  0.44103  0.10847  Biso   1.000  O
  C75      1.0000 0.50000  0.33181  0.11707  Biso   1.000  C
  H459     1.0000 0.50000  0.32440  0.08960  Biso   1.000  H
  C76      1.0000 0.50000  0.30213  0.14711  Biso   1.000  C
  H460     1.0000 0.50000  0.27470  0.13970  Biso   1.000  H
  O39      1.0000 0.00000  0.94103  0.10847  Biso   1.000  O
  C77      1.0000 0.00000  0.83181  0.11707  Biso   1.000  C
  H461     1.0000 0.00000  0.82440  0.08960  Biso   1.000  H
  C78      1.0000 0.00000  0.80213  0.14711  Biso   1.000  C
  H462     1.0000 0.00000  0.77470  0.13970  Biso   1.000  H
  O40      1.0000 0.00000  0.44103  0.60847  Biso   1.000  O
  C79      1.0000 0.00000  0.33181  0.61707  Biso   1.000  C
  H463     1.0000 0.00000  0.32440  0.58960  Biso   1.000  H
  C80      1.0000 0.00000  0.30213  0.64711  Biso   1.000  C
  H464     1.0000 0.00000  0.27470  0.63970  Biso   1.000  H
  O41      1.0000 0.50000  0.05897  0.60847  Biso   1.000  O
  C81      1.0000 0.50000  0.16819  0.61707  Biso   1.000  C
  H465     1.0000 0.50000  0.17560  0.58960  Biso   1.000  H
  C82      1.0000 0.50000  0.19787  0.64711  Biso   1.000  C
  H466     1.0000 0.50000  0.22530  0.63970  Biso   1.000  H
  O42      1.0000 0.50000  0.55897  0.10847  Biso   1.000  O
  C83      1.0000 0.50000  0.66819  0.11707  Biso   1.000  C
  H467     1.0000 0.50000  0.67560  0.08960  Biso   1.000  H
  C84      1.0000 0.50000  0.69787  0.14711  Biso   1.000  C
  H468     1.0000 0.50000  0.72530  0.13970  Biso   1.000  H
  O43      1.0000 0.00000  0.05897  0.10847  Biso   1.000  O
  C85      1.0000 0.00000  0.16819  0.11707  Biso   1.000  C
  H469     1.0000 0.00000  0.17560  0.08960  Biso   1.000  H
  C86      1.0000 0.00000  0.19787  0.14711  Biso   1.000  C
  H470     1.0000 0.00000  0.22530  0.13970  Biso   1.000  H
  O44      1.0000 0.00000  0.55897  0.60847  Biso   1.000  O
  C87      1.0000 0.00000  0.66819  0.61707  Biso   1.000  C
  H471     1.0000 0.00000  0.67560  0.58960  Biso   1.000  H
  C88      1.0000 0.00000  0.69787  0.64711  Biso   1.000  C
  H472     1.0000 0.00000  0.72530  0.63970  Biso   1.000  H
  O45      1.0000 0.50000  0.05897  0.39153  Biso   1.000  O
  C89      1.0000 0.50000  0.16819  0.38293  Biso   1.000  C
  H473     1.0000 0.50000  0.17560  0.41040  Biso   1.000  H
  C90      1.0000 0.50000  0.19787  0.35289  Biso   1.000  C
  H474     1.0000 0.50000  0.22530  0.36030  Biso   1.000  H
  O46      1.0000 0.50000  0.55897  0.89153  Biso   1.000  O
  C91      1.0000 0.50000  0.66819  0.88293  Biso   1.000  C
  H475     1.0000 0.50000  0.67560  0.91040  Biso   1.000  H
  C92      1.0000 0.50000  0.69787  0.85289  Biso   1.000  C
  H476     1.0000 0.50000  0.72530  0.86030  Biso   1.000  H
  O47      1.0000 0.00000  0.05897  0.89153  Biso   1.000  O
  C93      1.0000 0.00000  0.16819  0.88293  Biso   1.000  C
  H477     1.0000 0.00000  0.17560  0.91040  Biso   1.000  H
  C94      1.0000 0.00000  0.19787  0.85289  Biso   1.000  C
  H478     1.0000 0.00000  0.22530  0.86030  Biso   1.000  H
  O48      1.0000 0.00000  0.55897  0.39153  Biso   1.000  O
  C95      1.0000 0.00000  0.66819  0.38293  Biso   1.000  C
  H479     1.0000 0.00000  0.67560  0.41040  Biso   1.000  H
  C96      1.0000 0.00000  0.69787  0.35289  Biso   1.000  C
  H480     1.0000 0.00000  0.72530  0.36030  Biso   1.000  H
  O49      1.0000 0.50000  0.39153  0.05897  Biso   1.000  O
  C97      1.0000 0.50000  0.38293  0.16819  Biso   1.000  C
  H481     1.0000 0.50000  0.41040  0.17560  Biso   1.000  H
  C98      1.0000 0.50000  0.35289  0.19787  Biso   1.000  C
  H482     1.0000 0.50000  0.36030  0.22530  Biso   1.000  H
  O50      1.0000 0.50000  0.89153  0.55897  Biso   1.000  O
  C99      1.0000 0.50000  0.88293  0.66819  Biso   1.000  C
  H483     1.0000 0.50000  0.91040  0.67560  Biso   1.000  H
  C100     1.0000 0.50000  0.85289  0.69787  Biso   1.000  C
  H484     1.0000 0.50000  0.86030  0.72530  Biso   1.000  H
  O51      1.0000 0.00000  0.39153  0.55897  Biso   1.000  O
  C101     1.0000 0.00000  0.38293  0.66819  Biso   1.000  C
  H485     1.0000 0.00000  0.41040  0.67560  Biso   1.000  H
  C102     1.0000 0.00000  0.35289  0.69787  Biso   1.000  C
  H486     1.0000 0.00000  0.36030  0.72530  Biso   1.000  H
  O52      1.0000 0.00000  0.89153  0.05897  Biso   1.000  O
  C103     1.0000 0.00000  0.88293  0.16819  Biso   1.000  C
  H487     1.0000 0.00000  0.91040  0.17560  Biso   1.000  H
  C104     1.0000 0.00000  0.85289  0.19787  Biso   1.000  C
  H488     1.0000 0.00000  0.86030  0.22530  Biso   1.000  H
  O53      1.0000 0.50000  0.60847  0.05897  Biso   1.000  O
  C105     1.0000 0.50000  0.61707  0.16819  Biso   1.000  C
  H489     1.0000 0.50000  0.58960  0.17560  Biso   1.000  H
  C106     1.0000 0.50000  0.64711  0.19787  Biso   1.000  C
  H490     1.0000 0.50000  0.63970  0.22530  Biso   1.000  H
  O54      1.0000 0.50000  0.10847  0.55897  Biso   1.000  O
  C107     1.0000 0.50000  0.11707  0.66819  Biso   1.000  C
  H491     1.0000 0.50000  0.08960  0.67560  Biso   1.000  H
  C108     1.0000 0.50000  0.14711  0.69787  Biso   1.000  C
  H492     1.0000 0.50000  0.13970  0.72530  Biso   1.000  H
  O55      1.0000 0.00000  0.60847  0.55897  Biso   1.000  O
  C109     1.0000 0.00000  0.61707  0.66819  Biso   1.000  C
  H493     1.0000 0.00000  0.58960  0.67560  Biso   1.000  H
  C110     1.0000 0.00000  0.64711  0.69787  Biso   1.000  C
  H494     1.0000 0.00000  0.63970  0.72530  Biso   1.000  H
  O56      1.0000 0.00000  0.10847  0.05897  Biso   1.000  O
  C111     1.0000 0.00000  0.11707  0.16819  Biso   1.000  C
  H495     1.0000 0.00000  0.08960  0.17560  Biso   1.000  H
  C112     1.0000 0.00000  0.14711  0.19787  Biso   1.000  C
  H496     1.0000 0.00000  0.13970  0.22530  Biso   1.000  H
  O57      1.0000 0.50000  0.60847  0.94103  Biso   1.000  O
  C113     1.0000 0.50000  0.61707  0.83181  Biso   1.000  C
  H497     1.0000 0.50000  0.58960  0.82440  Biso   1.000  H
  C114     1.0000 0.50000  0.64711  0.80213  Biso   1.000  C
  H498     1.0000 0.50000  0.63970  0.77470  Biso   1.000  H
  O58      1.0000 0.50000  0.10847  0.44103  Biso   1.000  O
  C115     1.0000 0.50000  0.11707  0.33181  Biso   1.000  C
  H499     1.0000 0.50000  0.08960  0.32440  Biso   1.000  H
  C116     1.0000 0.50000  0.14711  0.30213  Biso   1.000  C
  H500     1.0000 0.50000  0.13970  0.27470  Biso   1.000  H
  O59      1.0000 0.00000  0.60847  0.44103  Biso   1.000  O
  C117     1.0000 0.00000  0.61707  0.33181  Biso   1.000  C
  H501     1.0000 0.00000  0.58960  0.32440  Biso   1.000  H
  C118     1.0000 0.00000  0.64711  0.30213  Biso   1.000  C
  H502     1.0000 0.00000  0.63970  0.27470  Biso   1.000  H
  O60      1.0000 0.00000  0.10847  0.94103  Biso   1.000  O
  C119     1.0000 0.00000  0.11707  0.83181  Biso   1.000  C
  H503     1.0000 0.00000  0.08960  0.82440  Biso   1.000  H
  C120     1.0000 0.00000  0.14711  0.80213  Biso   1.000  C
  H504     1.0000 0.00000  0.13970  0.77470  Biso   1.000  H
  O61      1.0000 0.50000  0.39153  0.94103  Biso   1.000  O
  C121     1.0000 0.50000  0.38293  0.83181  Biso   1.000  C
  H505     1.0000 0.50000  0.41040  0.82440  Biso   1.000  H
  C122     1.0000 0.50000  0.35289  0.80213  Biso   1.000  C
  H506     1.0000 0.50000  0.36030  0.77470  Biso   1.000  H
  O62      1.0000 0.50000  0.89153  0.44103  Biso   1.000  O
  C123     1.0000 0.50000  0.88293  0.33181  Biso   1.000  C
  H507     1.0000 0.50000  0.91040  0.32440  Biso   1.000  H
  C124     1.0000 0.50000  0.85289  0.30213  Biso   1.000  C
  H508     1.0000 0.50000  0.86030  0.27470  Biso   1.000  H
  O63      1.0000 0.00000  0.39153  0.44103  Biso   1.000  O
  C125     1.0000 0.00000  0.38293  0.33181  Biso   1.000  C
  H509     1.0000 0.00000  0.41040  0.32440  Biso   1.000  H
  C126     1.0000 0.00000  0.35289  0.30213  Biso   1.000  C
  H510     1.0000 0.00000  0.36030  0.27470  Biso   1.000  H
  O64      1.0000 0.00000  0.89153  0.94103  Biso   1.000  O
  C127     1.0000 0.00000  0.88293  0.83181  Biso   1.000  C
  H511     1.0000 0.00000  0.91040  0.82440  Biso   1.000  H
  C128     1.0000 0.00000  0.85289  0.80213  Biso   1.000  C
  H512     1.0000 0.00000  0.86030  0.77470  Biso   1.000  H
  O65      1.0000 0.39153  0.94103  0.50000  Biso   1.000  O
  C129     1.0000 0.38293  0.83181  0.50000  Biso   1.000  C
  H513     1.0000 0.41040  0.82440  0.50000  Biso   1.000  H
  C130     1.0000 0.35289  0.80213  0.50000  Biso   1.000  C
  H514     1.0000 0.36030  0.77470  0.50000  Biso   1.000  H
  O66      1.0000 0.39153  0.44103  0.00000  Biso   1.000  O
  C131     1.0000 0.38293  0.33181  0.00000  Biso   1.000  C
  H515     1.0000 0.41040  0.32440  0.00000  Biso   1.000  H
  C132     1.0000 0.35289  0.30213  0.00000  Biso   1.000  C
  H516     1.0000 0.36030  0.27470  0.00000  Biso   1.000  H
  O67      1.0000 0.89153  0.94103  0.00000  Biso   1.000  O
  C133     1.0000 0.88293  0.83181  0.00000  Biso   1.000  C
  H517     1.0000 0.91040  0.82440  0.00000  Biso   1.000  H
  C134     1.0000 0.85289  0.80213  0.00000  Biso   1.000  C
  H518     1.0000 0.86030  0.77470  0.00000  Biso   1.000  H
  O68      1.0000 0.89153  0.44103  0.50000  Biso   1.000  O
  C135     1.0000 0.88293  0.33181  0.50000  Biso   1.000  C
  H519     1.0000 0.91040  0.32440  0.50000  Biso   1.000  H
  C136     1.0000 0.85289  0.30213  0.50000  Biso   1.000  C
  H520     1.0000 0.86030  0.27470  0.50000  Biso   1.000  H
  O69      1.0000 0.60847  0.94103  0.50000  Biso   1.000  O
  C137     1.0000 0.61707  0.83181  0.50000  Biso   1.000  C
  H521     1.0000 0.58960  0.82440  0.50000  Biso   1.000  H
  C138     1.0000 0.64711  0.80213  0.50000  Biso   1.000  C
  H522     1.0000 0.63970  0.77470  0.50000  Biso   1.000  H
  O70      1.0000 0.60847  0.44103  0.00000  Biso   1.000  O
  C139     1.0000 0.61707  0.33181  0.00000  Biso   1.000  C
  H523     1.0000 0.58960  0.32440  0.00000  Biso   1.000  H
  C140     1.0000 0.64711  0.30213  0.00000  Biso   1.000  C
  H524     1.0000 0.63970  0.27470  0.00000  Biso   1.000  H
  O71      1.0000 0.10847  0.94103  0.00000  Biso   1.000  O
  C141     1.0000 0.11707  0.83181  0.00000  Biso   1.000  C
  H525     1.0000 0.08960  0.82440  0.00000  Biso   1.000  H
  C142     1.0000 0.14711  0.80213  0.00000  Biso   1.000  C
  H526     1.0000 0.13970  0.77470  0.00000  Biso   1.000  H
  O72      1.0000 0.10847  0.44103  0.50000  Biso   1.000  O
  C143     1.0000 0.11707  0.33181  0.50000  Biso   1.000  C
  H527     1.0000 0.08960  0.32440  0.50000  Biso   1.000  H
  C144     1.0000 0.14711  0.30213  0.50000  Biso   1.000  C
  H528     1.0000 0.13970  0.27470  0.50000  Biso   1.000  H
  O73      1.0000 0.60847  0.05897  0.50000  Biso   1.000  O
  C145     1.0000 0.61707  0.16819  0.50000  Biso   1.000  C
  H529     1.0000 0.58960  0.17560  0.50000  Biso   1.000  H
  C146     1.0000 0.64711  0.19787  0.50000  Biso   1.000  C
  H530     1.0000 0.63970  0.22530  0.50000  Biso   1.000  H
  O74      1.0000 0.60847  0.55897  0.00000  Biso   1.000  O
  C147     1.0000 0.61707  0.66819  0.00000  Biso   1.000  C
  H531     1.0000 0.58960  0.67560  0.00000  Biso   1.000  H
  C148     1.0000 0.64711  0.69787  0.00000  Biso   1.000  C
  H532     1.0000 0.63970  0.72530  0.00000  Biso   1.000  H
  O75      1.0000 0.10847  0.05897  0.00000  Biso   1.000  O
  C149     1.0000 0.11707  0.16819  0.00000  Biso   1.000  C
  H533     1.0000 0.08960  0.17560  0.00000  Biso   1.000  H
  C150     1.0000 0.14711  0.19787  0.00000  Biso   1.000  C
  H534     1.0000 0.13970  0.22530  0.00000  Biso   1.000  H
  O76      1.0000 0.10847  0.55897  0.50000  Biso   1.000  O
  C151     1.0000 0.11707  0.66819  0.50000  Biso   1.000  C
  H535     1.0000 0.08960  0.67560  0.50000  Biso   1.000  H
  C152     1.0000 0.14711  0.69787  0.50000  Biso   1.000  C
  H536     1.0000 0.13970  0.72530  0.50000  Biso   1.000  H
  O77      1.0000 0.39153  0.05897  0.50000  Biso   1.000  O
  C153     1.0000 0.38293  0.16819  0.50000  Biso   1.000  C
  H537     1.0000 0.41040  0.17560  0.50000  Biso   1.000  H
  C154     1.0000 0.35289  0.19787  0.50000  Biso   1.000  C
  H538     1.0000 0.36030  0.22530  0.50000  Biso   1.000  H
  O78      1.0000 0.39153  0.55897  0.00000  Biso   1.000  O
  C155     1.0000 0.38293  0.66819  0.00000  Biso   1.000  C
  H539     1.0000 0.41040  0.67560  0.00000  Biso   1.000  H
  C156     1.0000 0.35289  0.69787  0.00000  Biso   1.000  C
  H540     1.0000 0.36030  0.72530  0.00000  Biso   1.000  H
  O79      1.0000 0.89153  0.05897  0.00000  Biso   1.000  O
  C157     1.0000 0.88293  0.16819  0.00000  Biso   1.000  C
  H541     1.0000 0.91040  0.17560  0.00000  Biso   1.000  H
  C158     1.0000 0.85289  0.19787  0.00000  Biso   1.000  C
  H542     1.0000 0.86030  0.22530  0.00000  Biso   1.000  H
  O80      1.0000 0.89153  0.55897  0.50000  Biso   1.000  O
  C159     1.0000 0.88293  0.66819  0.50000  Biso   1.000  C
  H543     1.0000 0.91040  0.67560  0.50000  Biso   1.000  H
  C160     1.0000 0.85289  0.69787  0.50000  Biso   1.000  C
  H544     1.0000 0.86030  0.72530  0.50000  Biso   1.000  H
  O81      1.0000 0.94103  0.50000  0.60847  Biso   1.000  O
  C161     1.0000 0.83181  0.50000  0.61707  Biso   1.000  C
  H545     1.0000 0.82440  0.50000  0.58960  Biso   1.000  H
  C162     1.0000 0.80213  0.50000  0.64711  Biso   1.000  C
  H546     1.0000 0.77470  0.50000  0.63970  Biso   1.000  H
  O82      1.0000 0.94103  0.00000  0.10847  Biso   1.000  O
  C163     1.0000 0.83181  0.00000  0.11707  Biso   1.000  C
  H547     1.0000 0.82440  0.00000  0.08960  Biso   1.000  H
  C164     1.0000 0.80213  0.00000  0.14711  Biso   1.000  C
  H548     1.0000 0.77470  0.00000  0.13970  Biso   1.000  H
  O83      1.0000 0.44103  0.50000  0.10847  Biso   1.000  O
  C165     1.0000 0.33181  0.50000  0.11707  Biso   1.000  C
  H549     1.0000 0.32440  0.50000  0.08960  Biso   1.000  H
  C166     1.0000 0.30213  0.50000  0.14711  Biso   1.000  C
  H550     1.0000 0.27470  0.50000  0.13970  Biso   1.000  H
  O84      1.0000 0.44103  0.00000  0.60847  Biso   1.000  O
  C167     1.0000 0.33181  0.00000  0.61707  Biso   1.000  C
  H551     1.0000 0.32440  0.00000  0.58960  Biso   1.000  H
  C168     1.0000 0.30213  0.00000  0.64711  Biso   1.000  C
  H552     1.0000 0.27470  0.00000  0.63970  Biso   1.000  H
  O85      1.0000 0.94103  0.50000  0.39153  Biso   1.000  O
  C169     1.0000 0.83181  0.50000  0.38293  Biso   1.000  C
  H553     1.0000 0.82440  0.50000  0.41040  Biso   1.000  H
  C170     1.0000 0.80213  0.50000  0.35289  Biso   1.000  C
  H554     1.0000 0.77470  0.50000  0.36030  Biso   1.000  H
  O86      1.0000 0.94103  0.00000  0.89153  Biso   1.000  O
  C171     1.0000 0.83181  0.00000  0.88293  Biso   1.000  C
  H555     1.0000 0.82440  0.00000  0.91040  Biso   1.000  H
  C172     1.0000 0.80213  0.00000  0.85289  Biso   1.000  C
  H556     1.0000 0.77470  0.00000  0.86030  Biso   1.000  H
  O87      1.0000 0.44103  0.50000  0.89153  Biso   1.000  O
  C173     1.0000 0.33181  0.50000  0.88293  Biso   1.000  C
  H557     1.0000 0.32440  0.50000  0.91040  Biso   1.000  H
  C174     1.0000 0.30213  0.50000  0.85289  Biso   1.000  C
  H558     1.0000 0.27470  0.50000  0.86030  Biso   1.000  H
  O88      1.0000 0.44103  0.00000  0.39153  Biso   1.000  O
  C175     1.0000 0.33181  0.00000  0.38293  Biso   1.000  C
  H559     1.0000 0.32440  0.00000  0.41040  Biso   1.000  H
  C176     1.0000 0.30213  0.00000  0.35289  Biso   1.000  C
  H560     1.0000 0.27470  0.00000  0.36030  Biso   1.000  H
  O89      1.0000 0.05897  0.50000  0.39153  Biso   1.000  O
  C177     1.0000 0.16819  0.50000  0.38293  Biso   1.000  C
  H561     1.0000 0.17560  0.50000  0.41040  Biso   1.000  H
  C178     1.0000 0.19787  0.50000  0.35289  Biso   1.000  C
  H562     1.0000 0.22530  0.50000  0.36030  Biso   1.000  H
  O90      1.0000 0.05897  0.00000  0.89153  Biso   1.000  O
  C179     1.0000 0.16819  0.00000  0.88293  Biso   1.000  C
  H563     1.0000 0.17560  0.00000  0.91040  Biso   1.000  H
  C180     1.0000 0.19787  0.00000  0.85289  Biso   1.000  C
  H564     1.0000 0.22530  0.00000  0.86030  Biso   1.000  H
  O91      1.0000 0.55897  0.50000  0.89153  Biso   1.000  O
  C181     1.0000 0.66819  0.50000  0.88293  Biso   1.000  C
  H565     1.0000 0.67560  0.50000  0.91040  Biso   1.000  H
  C182     1.0000 0.69787  0.50000  0.85289  Biso   1.000  C
  H566     1.0000 0.72530  0.50000  0.86030  Biso   1.000  H
  O92      1.0000 0.55897  0.00000  0.39153  Biso   1.000  O
  C183     1.0000 0.66819  0.00000  0.38293  Biso   1.000  C
  H567     1.0000 0.67560  0.00000  0.41040  Biso   1.000  H
  C184     1.0000 0.69787  0.00000  0.35289  Biso   1.000  C
  H568     1.0000 0.72530  0.00000  0.36030  Biso   1.000  H
  O93      1.0000 0.05897  0.50000  0.60847  Biso   1.000  O
  C185     1.0000 0.16819  0.50000  0.61707  Biso   1.000  C
  H569     1.0000 0.17560  0.50000  0.58960  Biso   1.000  H
  C186     1.0000 0.19787  0.50000  0.64711  Biso   1.000  C
  H570     1.0000 0.22530  0.50000  0.63970  Biso   1.000  H
  O94      1.0000 0.05897  0.00000  0.10847  Biso   1.000  O
  C187     1.0000 0.16819  0.00000  0.11707  Biso   1.000  C
  H571     1.0000 0.17560  0.00000  0.08960  Biso   1.000  H
  C188     1.0000 0.19787  0.00000  0.14711  Biso   1.000  C
  H572     1.0000 0.22530  0.00000  0.13970  Biso   1.000  H
  O95      1.0000 0.55897  0.50000  0.10847  Biso   1.000  O
  C189     1.0000 0.66819  0.50000  0.11707  Biso   1.000  C
  H573     1.0000 0.67560  0.50000  0.08960  Biso   1.000  H
  C190     1.0000 0.69787  0.50000  0.14711  Biso   1.000  C
  H574     1.0000 0.72530  0.50000  0.13970  Biso   1.000  H
  O96      1.0000 0.55897  0.00000  0.60847  Biso   1.000  O
  C191     1.0000 0.66819  0.00000  0.61707  Biso   1.000  C
  H575     1.0000 0.67560  0.00000  0.58960  Biso   1.000  H
  C192     1.0000 0.69787  0.00000  0.64711  Biso   1.000  C
  H576     1.0000 0.72530  0.00000  0.63970  Biso   1.000  H
  O97      1.0000 0.46333  0.53667  0.96333  Biso   1.000  O
  O98      1.0000 0.53667  0.46333  0.96333  Biso   1.000  O
  O99      1.0000 0.53667  0.53667  0.03667  Biso   1.000  O
  O100     1.0000 0.46333  0.46333  0.03667  Biso   1.000  O
  O101     1.0000 0.96333  0.46333  0.53667  Biso   1.000  O
  O102     1.0000 0.96333  0.96333  0.03667  Biso   1.000  O
  O103     1.0000 0.96333  0.53667  0.46333  Biso   1.000  O
  O104     1.0000 0.96333  0.03667  0.96333  Biso   1.000  O
  O105     1.0000 0.03667  0.53667  0.53667  Biso   1.000  O
  O106     1.0000 0.03667  0.03667  0.03667  Biso   1.000  O
  O107     1.0000 0.03667  0.46333  0.46333  Biso   1.000  O
  O108     1.0000 0.03667  0.96333  0.96333  Biso   1.000  O
  O109     1.0000 0.53667  0.96333  0.46333  Biso   1.000  O
  O110     1.0000 0.46333  0.96333  0.53667  Biso   1.000  O
  O111     1.0000 0.53667  0.03667  0.53667  Biso   1.000  O
  O112     1.0000 0.46333  0.03667  0.46333  Biso   1.000  O
  O113     1.0000 0.53667  0.46333  0.03667  Biso   1.000  O
  O114     1.0000 0.46333  0.53667  0.03667  Biso   1.000  O
  O115     1.0000 0.53667  0.53667  0.96333  Biso   1.000  O
  O116     1.0000 0.46333  0.46333  0.96333  Biso   1.000  O
  O117     1.0000 0.46333  0.96333  0.46333  Biso   1.000  O
  O118     1.0000 0.53667  0.96333  0.53667  Biso   1.000  O
  O119     1.0000 0.53667  0.03667  0.46333  Biso   1.000  O
  O120     1.0000 0.46333  0.03667  0.53667  Biso   1.000  O
  O121     1.0000 0.96333  0.53667  0.53667  Biso   1.000  O
  O122     1.0000 0.96333  0.03667  0.03667  Biso   1.000  O
  O123     1.0000 0.96333  0.46333  0.46333  Biso   1.000  O
  O124     1.0000 0.96333  0.96333  0.96333  Biso   1.000  O
  O125     1.0000 0.03667  0.53667  0.46333  Biso   1.000  O
  O126     1.0000 0.03667  0.03667  0.96333  Biso   1.000  O
  O127     1.0000 0.03667  0.46333  0.53667  Biso   1.000  O
  O128     1.0000 0.03667  0.96333  0.03667  Biso   1.000  O
  C193     1.0000 0.40461  0.50000  0.90461  Biso   1.000  C
  C194     1.0000 0.37212  0.50000  0.87212  Biso   1.000  C
  C195     1.0000 0.31260  0.50000  0.81260  Biso   1.000  C
  C196     1.0000 0.27960  0.50000  0.77960  Biso   1.000  C
  C197     1.0000 0.40461  0.00000  0.40461  Biso   1.000  C
  C198     1.0000 0.37212  0.00000  0.37212  Biso   1.000  C
  C199     1.0000 0.31260  0.00000  0.31260  Biso   1.000  C
  C200     1.0000 0.27960  0.00000  0.27960  Biso   1.000  C
  C201     1.0000 0.59539  0.50000  0.90461  Biso   1.000  C
  C202     1.0000 0.62788  0.50000  0.87212  Biso   1.000  C
  C203     1.0000 0.68740  0.50000  0.81260  Biso   1.000  C
  C204     1.0000 0.72040  0.50000  0.77960  Biso   1.000  C
  C205     1.0000 0.59539  0.00000  0.40461  Biso   1.000  C
  C206     1.0000 0.62788  0.00000  0.37212  Biso   1.000  C
  C207     1.0000 0.68740  0.00000  0.31260  Biso   1.000  C
  C208     1.0000 0.72040  0.00000  0.27960  Biso   1.000  C
  C209     1.0000 0.59539  0.50000  0.09539  Biso   1.000  C
  C210     1.0000 0.62788  0.50000  0.12788  Biso   1.000  C
  C211     1.0000 0.68740  0.50000  0.18740  Biso   1.000  C
  C212     1.0000 0.72040  0.50000  0.22040  Biso   1.000  C
  C213     1.0000 0.59539  0.00000  0.59539  Biso   1.000  C
  C214     1.0000 0.62788  0.00000  0.62788  Biso   1.000  C
  C215     1.0000 0.68740  0.00000  0.68740  Biso   1.000  C
  C216     1.0000 0.72040  0.00000  0.72040  Biso   1.000  C
  C217     1.0000 0.40461  0.50000  0.09539  Biso   1.000  C
  C218     1.0000 0.37212  0.50000  0.12788  Biso   1.000  C
  C219     1.0000 0.31260  0.50000  0.18740  Biso   1.000  C
  C220     1.0000 0.27960  0.50000  0.22040  Biso   1.000  C
  C221     1.0000 0.40461  0.00000  0.59539  Biso   1.000  C
  C222     1.0000 0.37212  0.00000  0.62788  Biso   1.000  C
  C223     1.0000 0.31260  0.00000  0.68740  Biso   1.000  C
  C224     1.0000 0.27960  0.00000  0.72040  Biso   1.000  C
  C225     1.0000 0.90461  0.40461  0.50000  Biso   1.000  C
  C226     1.0000 0.87212  0.37212  0.50000  Biso   1.000  C
  C227     1.0000 0.81260  0.31260  0.50000  Biso   1.000  C
  C228     1.0000 0.77960  0.27960  0.50000  Biso   1.000  C
  C229     1.0000 0.90461  0.90461  0.00000  Biso   1.000  C
  C230     1.0000 0.87212  0.87212  0.00000  Biso   1.000  C
  C231     1.0000 0.81260  0.81260  0.00000  Biso   1.000  C
  C232     1.0000 0.77960  0.77960  0.00000  Biso   1.000  C
  C233     1.0000 0.90461  0.59539  0.50000  Biso   1.000  C
  C234     1.0000 0.87212  0.62788  0.50000  Biso   1.000  C
  C235     1.0000 0.81260  0.68740  0.50000  Biso   1.000  C
  C236     1.0000 0.77960  0.72040  0.50000  Biso   1.000  C
  C237     1.0000 0.90461  0.09539  0.00000  Biso   1.000  C
  C238     1.0000 0.87212  0.12788  0.00000  Biso   1.000  C
  C239     1.0000 0.81260  0.18740  0.00000  Biso   1.000  C
  C240     1.0000 0.77960  0.22040  0.00000  Biso   1.000  C
  C241     1.0000 0.09539  0.59539  0.50000  Biso   1.000  C
  C242     1.0000 0.12788  0.62788  0.50000  Biso   1.000  C
  C243     1.0000 0.18740  0.68740  0.50000  Biso   1.000  C
  C244     1.0000 0.22040  0.72040  0.50000  Biso   1.000  C
  C245     1.0000 0.09539  0.09539  0.00000  Biso   1.000  C
  C246     1.0000 0.12788  0.12788  0.00000  Biso   1.000  C
  C247     1.0000 0.18740  0.18740  0.00000  Biso   1.000  C
  C248     1.0000 0.22040  0.22040  0.00000  Biso   1.000  C
  C249     1.0000 0.09539  0.40461  0.50000  Biso   1.000  C
  C250     1.0000 0.12788  0.37212  0.50000  Biso   1.000  C
  C251     1.0000 0.18740  0.31260  0.50000  Biso   1.000  C
  C252     1.0000 0.22040  0.27960  0.50000  Biso   1.000  C
  C253     1.0000 0.09539  0.90461  0.00000  Biso   1.000  C
  C254     1.0000 0.12788  0.87212  0.00000  Biso   1.000  C
  C255     1.0000 0.18740  0.81260  0.00000  Biso   1.000  C
  C256     1.0000 0.22040  0.77960  0.00000  Biso   1.000  C
  C257     1.0000 0.50000  0.90461  0.40461  Biso   1.000  C
  C258     1.0000 0.50000  0.87212  0.37212  Biso   1.000  C
  C259     1.0000 0.50000  0.81260  0.31260  Biso   1.000  C
  C260     1.0000 0.50000  0.77960  0.27960  Biso   1.000  C
  C261     1.0000 0.00000  0.90461  0.90461  Biso   1.000  C
  C262     1.0000 0.00000  0.87212  0.87212  Biso   1.000  C
  C263     1.0000 0.00000  0.81260  0.81260  Biso   1.000  C
  C264     1.0000 0.00000  0.77960  0.77960  Biso   1.000  C
  C265     1.0000 0.50000  0.90461  0.59539  Biso   1.000  C
  C266     1.0000 0.50000  0.87212  0.62788  Biso   1.000  C
  C267     1.0000 0.50000  0.81260  0.68740  Biso   1.000  C
  C268     1.0000 0.50000  0.77960  0.72040  Biso   1.000  C
  C269     1.0000 0.00000  0.90461  0.09539  Biso   1.000  C
  C270     1.0000 0.00000  0.87212  0.12788  Biso   1.000  C
  C271     1.0000 0.00000  0.81260  0.18740  Biso   1.000  C
  C272     1.0000 0.00000  0.77960  0.22040  Biso   1.000  C
  C273     1.0000 0.50000  0.09539  0.59539  Biso   1.000  C
  C274     1.0000 0.50000  0.12788  0.62788  Biso   1.000  C
  C275     1.0000 0.50000  0.18740  0.68740  Biso   1.000  C
  C276     1.0000 0.50000  0.22040  0.72040  Biso   1.000  C
  C277     1.0000 0.00000  0.09539  0.09539  Biso   1.000  C
  C278     1.0000 0.00000  0.12788  0.12788  Biso   1.000  C
  C279     1.0000 0.00000  0.18740  0.18740  Biso   1.000  C
  C280     1.0000 0.00000  0.22040  0.22040  Biso   1.000  C
  C281     1.0000 0.50000  0.09539  0.40461  Biso   1.000  C
  C282     1.0000 0.50000  0.12788  0.37212  Biso   1.000  C
  C283     1.0000 0.50000  0.18740  0.31260  Biso   1.000  C
  C284     1.0000 0.50000  0.22040  0.27960  Biso   1.000  C
  C285     1.0000 0.00000  0.09539  0.90461  Biso   1.000  C
  C286     1.0000 0.00000  0.12788  0.87212  Biso   1.000  C
  C287     1.0000 0.00000  0.18740  0.81260  Biso   1.000  C
  C288     1.0000 0.00000  0.22040  0.77960  Biso   1.000  C
  C289     1.0000 0.50000  0.40461  0.09539  Biso   1.000  C
  C290     1.0000 0.50000  0.37212  0.12788  Biso   1.000  C
  C291     1.0000 0.50000  0.31260  0.18740  Biso   1.000  C
  C292     1.0000 0.50000  0.27960  0.22040  Biso   1.000  C
  C293     1.0000 0.00000  0.40461  0.59539  Biso   1.000  C
  C294     1.0000 0.00000  0.37212  0.62788  Biso   1.000  C
  C295     1.0000 0.00000  0.31260  0.68740  Biso   1.000  C
  C296     1.0000 0.00000  0.27960  0.72040  Biso   1.000  C
  C297     1.0000 0.50000  0.59539  0.09539  Biso   1.000  C
  C298     1.0000 0.50000  0.62788  0.12788  Biso   1.000  C
  C299     1.0000 0.50000  0.68740  0.18740  Biso   1.000  C
  C300     1.0000 0.50000  0.72040  0.22040  Biso   1.000  C
  C301     1.0000 0.00000  0.59539  0.59539  Biso   1.000  C
  C302     1.0000 0.00000  0.62788  0.62788  Biso   1.000  C
  C303     1.0000 0.00000  0.68740  0.68740  Biso   1.000  C
  C304     1.0000 0.00000  0.72040  0.72040  Biso   1.000  C
  C305     1.0000 0.50000  0.59539  0.90461  Biso   1.000  C
  C306     1.0000 0.50000  0.62788  0.87212  Biso   1.000  C
  C307     1.0000 0.50000  0.68740  0.81260  Biso   1.000  C
  C308     1.0000 0.50000  0.72040  0.77960  Biso   1.000  C
  C309     1.0000 0.00000  0.59539  0.40461  Biso   1.000  C
  C310     1.0000 0.00000  0.62788  0.37212  Biso   1.000  C
  C311     1.0000 0.00000  0.68740  0.31260  Biso   1.000  C
  C312     1.0000 0.00000  0.72040  0.27960  Biso   1.000  C
  C313     1.0000 0.50000  0.40461  0.90461  Biso   1.000  C
  C314     1.0000 0.50000  0.37212  0.87212  Biso   1.000  C
  C315     1.0000 0.50000  0.31260  0.81260  Biso   1.000  C
  C316     1.0000 0.50000  0.27960  0.77960  Biso   1.000  C
  C317     1.0000 0.00000  0.40461  0.40461  Biso   1.000  C
  C318     1.0000 0.00000  0.37212  0.37212  Biso   1.000  C
  C319     1.0000 0.00000  0.31260  0.31260  Biso   1.000  C
  C320     1.0000 0.00000  0.27960  0.27960  Biso   1.000  C
  C321     1.0000 0.40461  0.90461  0.50000  Biso   1.000  C
  C322     1.0000 0.37212  0.87212  0.50000  Biso   1.000  C
  C323     1.0000 0.31260  0.81260  0.50000  Biso   1.000  C
  C324     1.0000 0.27960  0.77960  0.50000  Biso   1.000  C
  C325     1.0000 0.40461  0.40461  0.00000  Biso   1.000  C
  C326     1.0000 0.37212  0.37212  0.00000  Biso   1.000  C
  C327     1.0000 0.31260  0.31260  0.00000  Biso   1.000  C
  C328     1.0000 0.27960  0.27960  0.00000  Biso   1.000  C
  C329     1.0000 0.59539  0.90461  0.50000  Biso   1.000  C
  C330     1.0000 0.62788  0.87212  0.50000  Biso   1.000  C
  C331     1.0000 0.68740  0.81260  0.50000  Biso   1.000  C
  C332     1.0000 0.72040  0.77960  0.50000  Biso   1.000  C
  C333     1.0000 0.59539  0.40461  0.00000  Biso   1.000  C
  C334     1.0000 0.62788  0.37212  0.00000  Biso   1.000  C
  C335     1.0000 0.68740  0.31260  0.00000  Biso   1.000  C
  C336     1.0000 0.72040  0.27960  0.00000  Biso   1.000  C
  C337     1.0000 0.59539  0.09539  0.50000  Biso   1.000  C
  C338     1.0000 0.62788  0.12788  0.50000  Biso   1.000  C
  C339     1.0000 0.68740  0.18740  0.50000  Biso   1.000  C
  C340     1.0000 0.72040  0.22040  0.50000  Biso   1.000  C
  C341     1.0000 0.59539  0.59539  0.00000  Biso   1.000  C
  C342     1.0000 0.62788  0.62788  0.00000  Biso   1.000  C
  C343     1.0000 0.68740  0.68740  0.00000  Biso   1.000  C
  C344     1.0000 0.72040  0.72040  0.00000  Biso   1.000  C
  C345     1.0000 0.40461  0.09539  0.50000  Biso   1.000  C
  C346     1.0000 0.37212  0.12788  0.50000  Biso   1.000  C
  C347     1.0000 0.31260  0.18740  0.50000  Biso   1.000  C
  C348     1.0000 0.27960  0.22040  0.50000  Biso   1.000  C
  C349     1.0000 0.40461  0.59539  0.00000  Biso   1.000  C
  C350     1.0000 0.37212  0.62788  0.00000  Biso   1.000  C
  C351     1.0000 0.31260  0.68740  0.00000  Biso   1.000  C
  C352     1.0000 0.27960  0.72040  0.00000  Biso   1.000  C
  C353     1.0000 0.90461  0.50000  0.59539  Biso   1.000  C
  C354     1.0000 0.87212  0.50000  0.62788  Biso   1.000  C
  C355     1.0000 0.81260  0.50000  0.68740  Biso   1.000  C
  C356     1.0000 0.77960  0.50000  0.72040  Biso   1.000  C
  C357     1.0000 0.90461  0.00000  0.09539  Biso   1.000  C
  C358     1.0000 0.87212  0.00000  0.12788  Biso   1.000  C
  C359     1.0000 0.81260  0.00000  0.18740  Biso   1.000  C
  C360     1.0000 0.77960  0.00000  0.22040  Biso   1.000  C
  C361     1.0000 0.90461  0.50000  0.40461  Biso   1.000  C
  C362     1.0000 0.87212  0.50000  0.37212  Biso   1.000  C
  C363     1.0000 0.81260  0.50000  0.31260  Biso   1.000  C
  C364     1.0000 0.77960  0.50000  0.27960  Biso   1.000  C
  C365     1.0000 0.90461  0.00000  0.90461  Biso   1.000  C
  C366     1.0000 0.87212  0.00000  0.87212  Biso   1.000  C
  C367     1.0000 0.81260  0.00000  0.81260  Biso   1.000  C
  C368     1.0000 0.77960  0.00000  0.77960  Biso   1.000  C
  C369     1.0000 0.09539  0.50000  0.40461  Biso   1.000  C
  C370     1.0000 0.12788  0.50000  0.37212  Biso   1.000  C
  C371     1.0000 0.18740  0.50000  0.31260  Biso   1.000  C
  C372     1.0000 0.22040  0.50000  0.27960  Biso   1.000  C
  C373     1.0000 0.09539  0.00000  0.90461  Biso   1.000  C
  C374     1.0000 0.12788  0.00000  0.87212  Biso   1.000  C
  C375     1.0000 0.18740  0.00000  0.81260  Biso   1.000  C
  C376     1.0000 0.22040  0.00000  0.77960  Biso   1.000  C
  C377     1.0000 0.09539  0.50000  0.59539  Biso   1.000  C
  C378     1.0000 0.12788  0.50000  0.62788  Biso   1.000  C
  C379     1.0000 0.18740  0.50000  0.68740  Biso   1.000  C
  C380     1.0000 0.22040  0.50000  0.72040  Biso   1.000  C
  C381     1.0000 0.09539  0.00000  0.09539  Biso   1.000  C
  C382     1.0000 0.12788  0.00000  0.12788  Biso   1.000  C
  C383     1.0000 0.18740  0.00000  0.18740  Biso   1.000  C
  C384     1.0000 0.22040  0.00000  0.22040  Biso   1.000  C
  C385     1.0000 0.26480  0.53535  0.76480  Biso   1.000  C
  C386     1.0000 0.27840  0.57857  0.77840  Biso   1.000  C
  C387     1.0000 0.26480  0.03535  0.26480  Biso   1.000  C
  C388     1.0000 0.27840  0.07857  0.27840  Biso   1.000  C
  C389     1.0000 0.76480  0.03535  0.76480  Biso   1.000  C
  C390     1.0000 0.77840  0.07857  0.77840  Biso   1.000  C
  C391     1.0000 0.73520  0.46465  0.76480  Biso   1.000  C
  C392     1.0000 0.72160  0.42143  0.77840  Biso   1.000  C
  C393     1.0000 0.73520  0.96465  0.26480  Biso   1.000  C
  C394     1.0000 0.72160  0.92143  0.27840  Biso   1.000  C
  C395     1.0000 0.73520  0.53535  0.23520  Biso   1.000  C
  C396     1.0000 0.72160  0.57857  0.22160  Biso   1.000  C
  C397     1.0000 0.73520  0.03535  0.73520  Biso   1.000  C
  C398     1.0000 0.72160  0.07857  0.72160  Biso   1.000  C
  C399     1.0000 0.26480  0.46465  0.23520  Biso   1.000  C
  C400     1.0000 0.27840  0.42143  0.22160  Biso   1.000  C
  C401     1.0000 0.26480  0.96465  0.73520  Biso   1.000  C
  C402     1.0000 0.27840  0.92143  0.72160  Biso   1.000  C
  C403     1.0000 0.76480  0.46465  0.73520  Biso   1.000  C
  C404     1.0000 0.77840  0.42143  0.72160  Biso   1.000  C
  C405     1.0000 0.76480  0.26480  0.53535  Biso   1.000  C
  C406     1.0000 0.77840  0.27840  0.57857  Biso   1.000  C
  C407     1.0000 0.76480  0.76480  0.03535  Biso   1.000  C
  C408     1.0000 0.77840  0.77840  0.07857  Biso   1.000  C
  C409     1.0000 0.76480  0.73520  0.46465  Biso   1.000  C
  C410     1.0000 0.77840  0.72160  0.42143  Biso   1.000  C
  C411     1.0000 0.76480  0.23520  0.96465  Biso   1.000  C
  C412     1.0000 0.77840  0.22160  0.92143  Biso   1.000  C
  C413     1.0000 0.23520  0.73520  0.53535  Biso   1.000  C
  C414     1.0000 0.22160  0.72160  0.57857  Biso   1.000  C
  C415     1.0000 0.23520  0.23520  0.03535  Biso   1.000  C
  C416     1.0000 0.22160  0.22160  0.07857  Biso   1.000  C
  C417     1.0000 0.73520  0.73520  0.03535  Biso   1.000  C
  C418     1.0000 0.72160  0.72160  0.07857  Biso   1.000  C
  C419     1.0000 0.23520  0.26480  0.46465  Biso   1.000  C
  C420     1.0000 0.22160  0.27840  0.42143  Biso   1.000  C
  C421     1.0000 0.23520  0.76480  0.96465  Biso   1.000  C
  C422     1.0000 0.22160  0.77840  0.92143  Biso   1.000  C
  C423     1.0000 0.73520  0.76480  0.46465  Biso   1.000  C
  C424     1.0000 0.72160  0.77840  0.42143  Biso   1.000  C
  C425     1.0000 0.53535  0.76480  0.26480  Biso   1.000  C
  C426     1.0000 0.57857  0.77840  0.27840  Biso   1.000  C
  C427     1.0000 0.03535  0.76480  0.76480  Biso   1.000  C
  C428     1.0000 0.07857  0.77840  0.77840  Biso   1.000  C
  C429     1.0000 0.46465  0.76480  0.73520  Biso   1.000  C
  C430     1.0000 0.42143  0.77840  0.72160  Biso   1.000  C
  C431     1.0000 0.96465  0.76480  0.23520  Biso   1.000  C
  C432     1.0000 0.92143  0.77840  0.22160  Biso   1.000  C
  C433     1.0000 0.53535  0.23520  0.73520  Biso   1.000  C
  C434     1.0000 0.57857  0.22160  0.72160  Biso   1.000  C
  C435     1.0000 0.03535  0.23520  0.23520  Biso   1.000  C
  C436     1.0000 0.07857  0.22160  0.22160  Biso   1.000  C
  C437     1.0000 0.03535  0.73520  0.73520  Biso   1.000  C
  C438     1.0000 0.07857  0.72160  0.72160  Biso   1.000  C
  C439     1.0000 0.46465  0.23520  0.26480  Biso   1.000  C
  C440     1.0000 0.42143  0.22160  0.27840  Biso   1.000  C
  C441     1.0000 0.46465  0.73520  0.76480  Biso   1.000  C
  C442     1.0000 0.42143  0.72160  0.77840  Biso   1.000  C
  C443     1.0000 0.96465  0.23520  0.76480  Biso   1.000  C
  C444     1.0000 0.92143  0.22160  0.77840  Biso   1.000  C
  C445     1.0000 0.53535  0.26480  0.23520  Biso   1.000  C
  C446     1.0000 0.57857  0.27840  0.22160  Biso   1.000  C
  C447     1.0000 0.53535  0.76480  0.73520  Biso   1.000  C
  C448     1.0000 0.57857  0.77840  0.72160  Biso   1.000  C
  C449     1.0000 0.03535  0.26480  0.73520  Biso   1.000  C
  C450     1.0000 0.07857  0.27840  0.72160  Biso   1.000  C
  C451     1.0000 0.46465  0.73520  0.23520  Biso   1.000  C
  C452     1.0000 0.42143  0.72160  0.22160  Biso   1.000  C
  C453     1.0000 0.96465  0.73520  0.73520  Biso   1.000  C
  C454     1.0000 0.92143  0.72160  0.72160  Biso   1.000  C
  C455     1.0000 0.53535  0.73520  0.76480  Biso   1.000  C
  C456     1.0000 0.57857  0.72160  0.77840  Biso   1.000  C
  C457     1.0000 0.03535  0.73520  0.26480  Biso   1.000  C
  C458     1.0000 0.07857  0.72160  0.27840  Biso   1.000  C
  C459     1.0000 0.46465  0.26480  0.76480  Biso   1.000  C
  C460     1.0000 0.42143  0.27840  0.77840  Biso   1.000  C
  C461     1.0000 0.96465  0.26480  0.26480  Biso   1.000  C
  C462     1.0000 0.92143  0.27840  0.27840  Biso   1.000  C
  C463     1.0000 0.96465  0.76480  0.76480  Biso   1.000  C
  C464     1.0000 0.92143  0.77840  0.77840  Biso   1.000  C
  C465     1.0000 0.26480  0.76480  0.46465  Biso   1.000  C
  C466     1.0000 0.27840  0.77840  0.42143  Biso   1.000  C
  C467     1.0000 0.26480  0.26480  0.96465  Biso   1.000  C
  C468     1.0000 0.27840  0.27840  0.92143  Biso   1.000  C
  C469     1.0000 0.76480  0.76480  0.96465  Biso   1.000  C
  C470     1.0000 0.77840  0.77840  0.92143  Biso   1.000  C
  C471     1.0000 0.73520  0.76480  0.53535  Biso   1.000  C
  C472     1.0000 0.72160  0.77840  0.57857  Biso   1.000  C
  C473     1.0000 0.73520  0.26480  0.03535  Biso   1.000  C
  C474     1.0000 0.72160  0.27840  0.07857  Biso   1.000  C
  C475     1.0000 0.73520  0.23520  0.46465  Biso   1.000  C
  C476     1.0000 0.72160  0.22160  0.42143  Biso   1.000  C
  C477     1.0000 0.73520  0.73520  0.96465  Biso   1.000  C
  C478     1.0000 0.72160  0.72160  0.92143  Biso   1.000  C
  C479     1.0000 0.26480  0.23520  0.53535  Biso   1.000  C
  C480     1.0000 0.27840  0.22160  0.57857  Biso   1.000  C
  C481     1.0000 0.26480  0.73520  0.03535  Biso   1.000  C
  C482     1.0000 0.27840  0.72160  0.07857  Biso   1.000  C
  C483     1.0000 0.76480  0.73520  0.53535  Biso   1.000  C
  C484     1.0000 0.77840  0.72160  0.57857  Biso   1.000  C
  C485     1.0000 0.76480  0.53535  0.73520  Biso   1.000  C
  C486     1.0000 0.77840  0.57857  0.72160  Biso   1.000  C
  C487     1.0000 0.76480  0.03535  0.23520  Biso   1.000  C
  C488     1.0000 0.77840  0.07857  0.22160  Biso   1.000  C
  C489     1.0000 0.76480  0.46465  0.26480  Biso   1.000  C
  C490     1.0000 0.77840  0.42143  0.27840  Biso   1.000  C
  C491     1.0000 0.76480  0.96465  0.76480  Biso   1.000  C
  C492     1.0000 0.77840  0.92143  0.77840  Biso   1.000  C
  C493     1.0000 0.23520  0.53535  0.26480  Biso   1.000  C
  C494     1.0000 0.22160  0.57857  0.27840  Biso   1.000  C
  C495     1.0000 0.23520  0.03535  0.76480  Biso   1.000  C
  C496     1.0000 0.22160  0.07857  0.77840  Biso   1.000  C
  C497     1.0000 0.73520  0.53535  0.76480  Biso   1.000  C
  C498     1.0000 0.72160  0.57857  0.77840  Biso   1.000  C
  C499     1.0000 0.23520  0.46465  0.73520  Biso   1.000  C
  C500     1.0000 0.22160  0.42143  0.72160  Biso   1.000  C
  C501     1.0000 0.23520  0.96465  0.23520  Biso   1.000  C
  C502     1.0000 0.22160  0.92143  0.22160  Biso   1.000  C
  C503     1.0000 0.73520  0.96465  0.73520  Biso   1.000  C
  C504     1.0000 0.72160  0.92143  0.72160  Biso   1.000  C
  C505     1.0000 0.73520  0.46465  0.23520  Biso   1.000  C
  C506     1.0000 0.72160  0.42143  0.22160  Biso   1.000  C
  C507     1.0000 0.26480  0.53535  0.23520  Biso   1.000  C
  C508     1.0000 0.27840  0.57857  0.22160  Biso   1.000  C
  C509     1.0000 0.26480  0.03535  0.73520  Biso   1.000  C
  C510     1.0000 0.27840  0.07857  0.72160  Biso   1.000  C
  C511     1.0000 0.26480  0.46465  0.76480  Biso   1.000  C
  C512     1.0000 0.27840  0.42143  0.77840  Biso   1.000  C
  C513     1.0000 0.26480  0.96465  0.26480  Biso   1.000  C
  C514     1.0000 0.27840  0.92143  0.27840  Biso   1.000  C
  C515     1.0000 0.73520  0.03535  0.26480  Biso   1.000  C
  C516     1.0000 0.72160  0.07857  0.27840  Biso   1.000  C
  C517     1.0000 0.23520  0.73520  0.46465  Biso   1.000  C
  C518     1.0000 0.22160  0.72160  0.42143  Biso   1.000  C
  C519     1.0000 0.23520  0.23520  0.96465  Biso   1.000  C
  C520     1.0000 0.22160  0.22160  0.92143  Biso   1.000  C
  C521     1.0000 0.23520  0.26480  0.53535  Biso   1.000  C
  C522     1.0000 0.22160  0.27840  0.57857  Biso   1.000  C
  C523     1.0000 0.23520  0.76480  0.03535  Biso   1.000  C
  C524     1.0000 0.22160  0.77840  0.07857  Biso   1.000  C
  C525     1.0000 0.76480  0.26480  0.46465  Biso   1.000  C
  C526     1.0000 0.77840  0.27840  0.42143  Biso   1.000  C
  C527     1.0000 0.76480  0.23520  0.03535  Biso   1.000  C
  C528     1.0000 0.77840  0.22160  0.07857  Biso   1.000  C
  C529     1.0000 0.46465  0.23520  0.73520  Biso   1.000  C
  C530     1.0000 0.42143  0.22160  0.72160  Biso   1.000  C
  C531     1.0000 0.96465  0.23520  0.23520  Biso   1.000  C
  C532     1.0000 0.92143  0.22160  0.22160  Biso   1.000  C
  C533     1.0000 0.53535  0.23520  0.26480  Biso   1.000  C
  C534     1.0000 0.57857  0.22160  0.27840  Biso   1.000  C
  C535     1.0000 0.03535  0.23520  0.76480  Biso   1.000  C
  C536     1.0000 0.07857  0.22160  0.77840  Biso   1.000  C
  C537     1.0000 0.46465  0.76480  0.26480  Biso   1.000  C
  C538     1.0000 0.42143  0.77840  0.27840  Biso   1.000  C
  C539     1.0000 0.03535  0.76480  0.23520  Biso   1.000  C
  C540     1.0000 0.07857  0.77840  0.22160  Biso   1.000  C
  C541     1.0000 0.96465  0.73520  0.26480  Biso   1.000  C
  C542     1.0000 0.92143  0.72160  0.27840  Biso   1.000  C
  C543     1.0000 0.53535  0.26480  0.76480  Biso   1.000  C
  C544     1.0000 0.57857  0.27840  0.77840  Biso   1.000  C
  C545     1.0000 0.03535  0.26480  0.26480  Biso   1.000  C
  C546     1.0000 0.07857  0.27840  0.27840  Biso   1.000  C
  C547     1.0000 0.46465  0.26480  0.23520  Biso   1.000  C
  C548     1.0000 0.42143  0.27840  0.22160  Biso   1.000  C
  C549     1.0000 0.96465  0.26480  0.73520  Biso   1.000  C
  C550     1.0000 0.92143  0.27840  0.72160  Biso   1.000  C
  C551     1.0000 0.53535  0.73520  0.23520  Biso   1.000  C
  C552     1.0000 0.57857  0.72160  0.22160  Biso   1.000  C
  C553     1.0000 0.73520  0.23520  0.53535  Biso   1.000  C
  C554     1.0000 0.72160  0.22160  0.57857  Biso   1.000  C
  C555     1.0000 0.26480  0.23520  0.46465  Biso   1.000  C
  C556     1.0000 0.27840  0.22160  0.42143  Biso   1.000  C
  C557     1.0000 0.26480  0.73520  0.96465  Biso   1.000  C
  C558     1.0000 0.27840  0.72160  0.92143  Biso   1.000  C
  C559     1.0000 0.26480  0.76480  0.53535  Biso   1.000  C
  C560     1.0000 0.27840  0.77840  0.57857  Biso   1.000  C
  C561     1.0000 0.26480  0.26480  0.03535  Biso   1.000  C
  C562     1.0000 0.27840  0.27840  0.07857  Biso   1.000  C
  C563     1.0000 0.73520  0.26480  0.96465  Biso   1.000  C
  C564     1.0000 0.72160  0.27840  0.92143  Biso   1.000  C
  C565     1.0000 0.23520  0.46465  0.26480  Biso   1.000  C
  C566     1.0000 0.22160  0.42143  0.27840  Biso   1.000  C
  C567     1.0000 0.23520  0.96465  0.76480  Biso   1.000  C
  C568     1.0000 0.22160  0.92143  0.77840  Biso   1.000  C
  C569     1.0000 0.23520  0.53535  0.73520  Biso   1.000  C
  C570     1.0000 0.22160  0.57857  0.72160  Biso   1.000  C
  C571     1.0000 0.23520  0.03535  0.23520  Biso   1.000  C
  C572     1.0000 0.22160  0.07857  0.22160  Biso   1.000  C
  C573     1.0000 0.76480  0.96465  0.23520  Biso   1.000  C
  C574     1.0000 0.77840  0.92143  0.22160  Biso   1.000  C
  C575     1.0000 0.76480  0.53535  0.26480  Biso   1.000  C
  C576     1.0000 0.77840  0.57857  0.27840  Biso   1.000  C
