data_image0
_cell_length_a       9.746
_cell_length_b       15.285
_cell_length_c       18.656
_cell_angle_alpha    107.339
_cell_angle_beta     99.509
_cell_angle_gamma    92.536

_symmetry_space_group_name_H-M    "P 1"
_symmetry_int_tables_number       1

loop_
  _symmetry_equiv_pos_as_xyz
  'x, y, z'

loop_
  _atom_site_label
  _atom_site_occupancy
  _atom_site_fract_x
  _atom_site_fract_y
  _atom_site_fract_z
  _atom_site_thermal_displace_type
  _atom_site_B_iso_or_equiv
  _atom_site_type_symbol
  Ag1      1.0000 0.91970  0.35040  0.77580  Biso   1.000  Ag
  Ag2      1.0000 0.21777  0.25773  0.74888  Biso   1.000  Ag
  Ag3      1.0000 0.53430  0.14830  0.73690  Biso   1.000  Ag
  C1       1.0000 0.63880  0.47960  0.50840  Biso   1.000  C
  C2       1.0000 0.53300  0.41380  0.50600  Biso   1.000  C
  C3       1.0000 0.39300  0.43360  0.49640  Biso   1.000  C
  C4       1.0000 0.79100  0.45750  0.51770  Biso   1.000  C
  H1       1.0000 0.79670  0.39570  0.48500  Biso   1.000  H
  H2       1.0000 0.84670  0.50010  0.50200  Biso   1.000  H
  C5       1.0000 0.88080  0.39890  0.62800  Biso   1.000  C
  H3       1.0000 0.88240  0.33740  0.60050  Biso   1.000  H
  C6       1.0000 0.89550  0.52410  0.71620  Biso   1.000  C
  H4       1.0000 0.91200  0.56680  0.76490  Biso   1.000  H
  C7       1.0000 0.56660  0.32040  0.51290  Biso   1.000  C
  H5       1.0000 0.50070  0.27310  0.47490  Biso   1.000  H
  H6       1.0000 0.65950  0.30950  0.50210  Biso   1.000  H
  C8       1.0000 0.54920  0.23570  0.60860  Biso   1.000  C
  H7       1.0000 0.53950  0.17600  0.57510  Biso   1.000  H
  C9       1.0000 0.56960  0.35150  0.70690  Biso   1.000  C
  H8       1.0000 0.57690  0.38680  0.75770  Biso   1.000  H
  C10      1.0000 0.27770  0.36170  0.49260  Biso   1.000  C
  H9       1.0000 0.19270  0.37070  0.46140  Biso   1.000  H
  H10      1.0000 0.30380  0.30100  0.46830  Biso   1.000  H
  C11      1.0000 0.23690  0.29870  0.59790  Biso   1.000  C
  H11      1.0000 0.23910  0.23670  0.57210  Biso   1.000  H
  C12      1.0000 0.22490  0.42400  0.68090  Biso   1.000  C
  H12      1.0000 0.21740  0.46640  0.72730  Biso   1.000  H
  C13      1.0000 0.10620  0.06600  0.00310  Biso   1.000  C
  C14      1.0000 0.96910  0.08930  0.00300  Biso   1.000  C
  C15      1.0000 0.86150  0.02360  0.00040  Biso   1.000  C
  C16      1.0000 0.22100  0.13700  0.00410  Biso   1.000  C
  H13      1.0000 0.20240  0.19770  0.03360  Biso   1.000  H
  H14      1.0000 0.31000  0.12360  0.02830  Biso   1.000  H
  C17      1.0000 0.22500  0.20610  0.89700  Biso   1.000  C
  H15      1.0000 0.22320  0.26750  0.92480  Biso   1.000  H
  C18      1.0000 0.22850  0.08310  0.80930  Biso   1.000  C
  H16      1.0000 0.22970  0.04270  0.76110  Biso   1.000  H
  C19      1.0000 0.93670  0.18650  0.00620  Biso   1.000  C
  H17      1.0000 0.85340  0.20020  0.02800  Biso   1.000  H
  H18      1.0000 0.01370  0.23020  0.03890  Biso   1.000  H
  C20      1.0000 0.90310  0.27310  0.91010  Biso   1.000  C
  H19      1.0000 0.90930  0.33200  0.94460  Biso   1.000  H
  C21      1.0000 0.88010  0.16210  0.81080  Biso   1.000  C
  H20      1.0000 0.86620  0.12880  0.75910  Biso   1.000  H
  C22      1.0000 0.71310  0.05110  0.00320  Biso   1.000  C
  H21      1.0000 0.66210  0.00910  0.02180  Biso   1.000  H
  H22      1.0000 0.71750  0.11260  0.03890  Biso   1.000  H
  C23      1.0000 0.60640  0.11810  0.90000  Biso   1.000  C
  H23      1.0000 0.62230  0.18030  0.92820  Biso   1.000  H
  C24      1.0000 0.54720  0.99380  0.81220  Biso   1.000  C
  H24      1.0000 0.51000  0.95220  0.76440  Biso   1.000  H
  N1       1.0000 0.91180  0.43280  0.70300  Biso   1.000  N
  N2       1.0000 0.84710  0.46450  0.59720  Biso   1.000  N
  N3       1.0000 0.85440  0.54600  0.65370  Biso   1.000  N
  N4       1.0000 0.55390  0.25820  0.68360  Biso   1.000  N
  N5       1.0000 0.56070  0.31300  0.58910  Biso   1.000  N
  N6       1.0000 0.57340  0.38770  0.65190  Biso   1.000  N
  N7       1.0000 0.21970  0.33200  0.66930  Biso   1.000  N
  N8       1.0000 0.25070  0.36660  0.56830  Biso   1.000  N
  N9       1.0000 0.24160  0.44770  0.62070  Biso   1.000  N
  N10      1.0000 0.22470  0.17490  0.82270  Biso   1.000  N
  N11      1.0000 0.22840  0.13620  0.92590  Biso   1.000  N
  N12      1.0000 0.23010  0.05570  0.86950  Biso   1.000  N
  N13      1.0000 0.88190  0.25370  0.83540  Biso   1.000  N
  N14      1.0000 0.91450  0.19640  0.92910  Biso   1.000  N
  N15      1.0000 0.89910  0.12260  0.86420  Biso   1.000  N
  N16      1.0000 0.54980  0.08590  0.82680  Biso   1.000  N
  N17      1.0000 0.63760  0.04960  0.92780  Biso   1.000  N
  N18      1.0000 0.60120  0.96810  0.87080  Biso   1.000  N
  Ag4      1.0000 0.51630  0.17190  0.75120  Biso   1.000  Ag
  Ag5      1.0000 0.91570  0.35310  0.77930  Biso   1.000  Ag
  Ag6      1.0000 0.08030  0.64960  0.22420  Biso   1.000  Ag
  Ag7      1.0000 0.78223  0.74227  0.25112  Biso   1.000  Ag
  Ag8      1.0000 0.46570  0.85170  0.26310  Biso   1.000  Ag
  C25      1.0000 0.36120  0.52040  0.49160  Biso   1.000  C
  C26      1.0000 0.46700  0.58620  0.49400  Biso   1.000  C
  C27      1.0000 0.60700  0.56640  0.50360  Biso   1.000  C
  C28      1.0000 0.20900  0.54250  0.48230  Biso   1.000  C
  H25      1.0000 0.20330  0.60430  0.51500  Biso   1.000  H
  H26      1.0000 0.15330  0.49990  0.49800  Biso   1.000  H
  C29      1.0000 0.11920  0.60110  0.37200  Biso   1.000  C
  H27      1.0000 0.11760  0.66260  0.39950  Biso   1.000  H
  C30      1.0000 0.10450  0.47590  0.28380  Biso   1.000  C
  H28      1.0000 0.08800  0.43320  0.23510  Biso   1.000  H
  C31      1.0000 0.43340  0.67960  0.48710  Biso   1.000  C
  H29      1.0000 0.49930  0.72690  0.52510  Biso   1.000  H
  H30      1.0000 0.34050  0.69050  0.49790  Biso   1.000  H
  C32      1.0000 0.45080  0.76430  0.39140  Biso   1.000  C
  H31      1.0000 0.46050  0.82400  0.42490  Biso   1.000  H
  C33      1.0000 0.43040  0.64850  0.29310  Biso   1.000  C
  H32      1.0000 0.42310  0.61320  0.24230  Biso   1.000  H
  C34      1.0000 0.72230  0.63830  0.50740  Biso   1.000  C
  H33      1.0000 0.80730  0.62930  0.53860  Biso   1.000  H
  H34      1.0000 0.69620  0.69900  0.53170  Biso   1.000  H
  C35      1.0000 0.76310  0.70130  0.40210  Biso   1.000  C
  H35      1.0000 0.76090  0.76330  0.42790  Biso   1.000  H
  C36      1.0000 0.77510  0.57600  0.31910  Biso   1.000  C
  H36      1.0000 0.78260  0.53360  0.27270  Biso   1.000  H
  C37      1.0000 0.89380  0.93400  0.99690  Biso   1.000  C
  C38      1.0000 0.03090  0.91070  0.99700  Biso   1.000  C
  C39      1.0000 0.13850  0.97640  0.99960  Biso   1.000  C
  C40      1.0000 0.77900  0.86300  0.99590  Biso   1.000  C
  H37      1.0000 0.79760  0.80230  0.96640  Biso   1.000  H
  H38      1.0000 0.69000  0.87640  0.97170  Biso   1.000  H
  C41      1.0000 0.77500  0.79390  0.10300  Biso   1.000  C
  H39      1.0000 0.77680  0.73250  0.07520  Biso   1.000  H
  C42      1.0000 0.77150  0.91690  0.19070  Biso   1.000  C
  H40      1.0000 0.77030  0.95730  0.23890  Biso   1.000  H
  C43      1.0000 0.06330  0.81350  0.99380  Biso   1.000  C
  H41      1.0000 0.14660  0.79980  0.97200  Biso   1.000  H
  H42      1.0000 0.98630  0.76980  0.96110  Biso   1.000  H
  C44      1.0000 0.09690  0.72690  0.08990  Biso   1.000  C
  H43      1.0000 0.09070  0.66800  0.05540  Biso   1.000  H
  C45      1.0000 0.11990  0.83790  0.18920  Biso   1.000  C
  H44      1.0000 0.13380  0.87120  0.24090  Biso   1.000  H
  C46      1.0000 0.28690  0.94890  0.99680  Biso   1.000  C
  H45      1.0000 0.33790  0.99090  0.97820  Biso   1.000  H
  H46      1.0000 0.28250  0.88740  0.96110  Biso   1.000  H
  C47      1.0000 0.39360  0.88190  0.10000  Biso   1.000  C
  H47      1.0000 0.37770  0.81970  0.07180  Biso   1.000  H
  C48      1.0000 0.45280  0.00620  0.18780  Biso   1.000  C
  H48      1.0000 0.49000  0.04780  0.23560  Biso   1.000  H
  N19      1.0000 0.08820  0.56720  0.29700  Biso   1.000  N
  N20      1.0000 0.15290  0.53550  0.40280  Biso   1.000  N
  N21      1.0000 0.14560  0.45400  0.34630  Biso   1.000  N
  N22      1.0000 0.44610  0.74180  0.31640  Biso   1.000  N
  N23      1.0000 0.43930  0.68700  0.41090  Biso   1.000  N
  N24      1.0000 0.42660  0.61230  0.34810  Biso   1.000  N
  N25      1.0000 0.78030  0.66800  0.33070  Biso   1.000  N
  N26      1.0000 0.74930  0.63340  0.43170  Biso   1.000  N
  N27      1.0000 0.75840  0.55230  0.37930  Biso   1.000  N
  N28      1.0000 0.77530  0.82510  0.17730  Biso   1.000  N
  N29      1.0000 0.77160  0.86380  0.07410  Biso   1.000  N
  N30      1.0000 0.76990  0.94430  0.13050  Biso   1.000  N
  N31      1.0000 0.11810  0.74630  0.16460  Biso   1.000  N
  N32      1.0000 0.08550  0.80360  0.07090  Biso   1.000  N
  N33      1.0000 0.10090  0.87740  0.13580  Biso   1.000  N
  N34      1.0000 0.45020  0.91410  0.17320  Biso   1.000  N
  N35      1.0000 0.36240  0.95040  0.07220  Biso   1.000  N
  N36      1.0000 0.39880  0.03190  0.12920  Biso   1.000  N
  Ag9      1.0000 0.48370  0.82810  0.24880  Biso   1.000  Ag
  Ag10     1.0000 0.08430  0.64690  0.22070  Biso   1.000  Ag
