data_image0
_cell_length_a       21.3477
_cell_length_b       22.9862
_cell_length_c       24.297
_cell_angle_alpha    90
_cell_angle_beta     90
_cell_angle_gamma    90

_symmetry_space_group_name_H-M    "P 1"
_symmetry_int_tables_number       1

loop_
  _symmetry_equiv_pos_as_xyz
  'x, y, z'

loop_
  _atom_site_label
  _atom_site_occupancy
  _atom_site_fract_x
  _atom_site_fract_y
  _atom_site_fract_z
  _atom_site_thermal_displace_type
  _atom_site_B_iso_or_equiv
  _atom_site_type_symbol
  Zn1      1.0000 0.93796  0.99819  0.21204  Biso   1.000  Zn
  N1       1.0000 0.96110  0.06600  0.16610  Biso   1.000  N
  N2       1.0000 0.99190  0.11960  0.09630  Biso   1.000  N
  N3       1.0000 0.91910  0.06890  0.83640  Biso   1.000  N
  N4       1.0000 0.88330  0.11850  0.90620  Biso   1.000  N
  N5       1.0000 0.80540  0.23000  0.40560  Biso   1.000  N
  N6       1.0000 0.75330  0.22940  0.48440  Biso   1.000  N
  N7       1.0000 0.86350  0.02210  0.25570  Biso   1.000  N
  N8       1.0000 0.77700  0.06870  0.27770  Biso   1.000  N
  C1       1.0000 0.98410  0.06720  0.11460  Biso   1.000  C
  H1       1.0000 0.99360  0.03320  0.09390  Biso   1.000  H
  C2       1.0000 0.97480  0.15970  0.13640  Biso   1.000  C
  H2       1.0000 0.97720  0.20100  0.13470  Biso   1.000  H
  C3       1.0000 0.95410  0.12640  0.17840  Biso   1.000  C
  H3       1.0000 0.93710  0.14120  0.21170  Biso   1.000  H
  C4       1.0000 0.01670  0.13340  0.04100  Biso   1.000  C
  C5       1.0000 0.97030  0.11770  0.99420  Biso   1.000  C
  C6       1.0000 0.91510  0.16110  0.99430  Biso   1.000  C
  C7       1.0000 0.85880  0.13300  0.96380  Biso   1.000  C
  C8       1.0000 0.89290  0.06490  0.88430  Biso   1.000  C
  H4       1.0000 0.88200  0.02930  0.90170  Biso   1.000  H
  C9       1.0000 0.90210  0.15460  0.87200  Biso   1.000  C
  H5       1.0000 0.90250  0.19560  0.87720  Biso   1.000  H
  C10      1.0000 0.92290  0.12530  0.82400  Biso   1.000  C
  H6       1.0000 0.93660  0.14210  0.79040  Biso   1.000  H
  C11      1.0000 0.75530  0.25020  0.43160  Biso   1.000  C
  H7       1.0000 0.72510  0.27540  0.41580  Biso   1.000  H
  C12      1.0000 0.80800  0.19120  0.49020  Biso   1.000  C
  H8       1.0000 0.81970  0.16780  0.52070  Biso   1.000  H
  C13      1.0000 0.83680  0.19750  0.44270  Biso   1.000  C
  H9       1.0000 0.87640  0.18040  0.43510  Biso   1.000  H
  C14      1.0000 0.81820  0.24150  0.34670  Biso   1.000  C
  H10      1.0000 0.78940  0.27230  0.33350  Biso   1.000  H
  H11      1.0000 0.86160  0.25600  0.34270  Biso   1.000  H
  C15      1.0000 0.80980  0.18640  0.31060  Biso   1.000  C
  H12      1.0000 0.81580  0.19650  0.27140  Biso   1.000  H
  H13      1.0000 0.84140  0.15680  0.32090  Biso   1.000  H
  C16      1.0000 0.74370  0.16190  0.31940  Biso   1.000  C
  H14      1.0000 0.71260  0.19380  0.31690  Biso   1.000  H
  H15      1.0000 0.74060  0.14450  0.35650  Biso   1.000  H
  C17      1.0000 0.72930  0.11530  0.27530  Biso   1.000  C
  H16      1.0000 0.68720  0.09860  0.28190  Biso   1.000  H
  H17      1.0000 0.72950  0.13340  0.23840  Biso   1.000  H
  C18      1.0000 0.82420  0.06200  0.24060  Biso   1.000  C
  H18      1.0000 0.82790  0.08400  0.20760  Biso   1.000  H
  C19      1.0000 0.78580  0.02720  0.32040  Biso   1.000  C
  H19      1.0000 0.76020  0.02020  0.35170  Biso   1.000  H
  C20      1.0000 0.84120  0.99930  0.30500  Biso   1.000  C
  H20      1.0000 0.86080  0.96900  0.32520  Biso   1.000  H
  C21      1.0000 0.96590  0.15470  0.00100  Biso   1.000  C
  C22      1.0000 0.90860  0.11350  0.00600  Biso   1.000  C
  Zn2      1.0000 0.93796  0.49819  0.71204  Biso   1.000  Zn
  N9       1.0000 0.96110  0.56600  0.66610  Biso   1.000  N
  N10      1.0000 0.99190  0.61960  0.59630  Biso   1.000  N
  N11      1.0000 0.91910  0.56890  0.33640  Biso   1.000  N
  N12      1.0000 0.88330  0.61850  0.40620  Biso   1.000  N
  N13      1.0000 0.80540  0.73000  0.90560  Biso   1.000  N
  N14      1.0000 0.75330  0.72940  0.98440  Biso   1.000  N
  N15      1.0000 0.86350  0.52210  0.75570  Biso   1.000  N
  N16      1.0000 0.77700  0.56870  0.77770  Biso   1.000  N
  C23      1.0000 0.98410  0.56720  0.61460  Biso   1.000  C
  H21      1.0000 0.99360  0.53320  0.59390  Biso   1.000  H
  C24      1.0000 0.97480  0.65970  0.63640  Biso   1.000  C
  H22      1.0000 0.97720  0.70100  0.63470  Biso   1.000  H
  C25      1.0000 0.95410  0.62640  0.67840  Biso   1.000  C
  H23      1.0000 0.93710  0.64120  0.71170  Biso   1.000  H
  C26      1.0000 0.01670  0.63340  0.54100  Biso   1.000  C
  C27      1.0000 0.97030  0.61770  0.49420  Biso   1.000  C
  C28      1.0000 0.91510  0.66110  0.49430  Biso   1.000  C
  C29      1.0000 0.85880  0.63300  0.46380  Biso   1.000  C
  C30      1.0000 0.89290  0.56490  0.38430  Biso   1.000  C
  H24      1.0000 0.88200  0.52930  0.40170  Biso   1.000  H
  C31      1.0000 0.90210  0.65460  0.37200  Biso   1.000  C
  H25      1.0000 0.90250  0.69560  0.37720  Biso   1.000  H
  C32      1.0000 0.92290  0.62530  0.32400  Biso   1.000  C
  H26      1.0000 0.93660  0.64210  0.29040  Biso   1.000  H
  C33      1.0000 0.75530  0.75020  0.93160  Biso   1.000  C
  H27      1.0000 0.72510  0.77540  0.91580  Biso   1.000  H
  C34      1.0000 0.80800  0.69120  0.99020  Biso   1.000  C
  H28      1.0000 0.81970  0.66780  0.02070  Biso   1.000  H
  C35      1.0000 0.83680  0.69750  0.94270  Biso   1.000  C
  H29      1.0000 0.87640  0.68040  0.93510  Biso   1.000  H
  C36      1.0000 0.81820  0.74150  0.84670  Biso   1.000  C
  H30      1.0000 0.78940  0.77230  0.83350  Biso   1.000  H
  H31      1.0000 0.86160  0.75600  0.84270  Biso   1.000  H
  C37      1.0000 0.80980  0.68640  0.81060  Biso   1.000  C
  H32      1.0000 0.81580  0.69650  0.77140  Biso   1.000  H
  H33      1.0000 0.84140  0.65680  0.82090  Biso   1.000  H
  C38      1.0000 0.74370  0.66190  0.81940  Biso   1.000  C
  H34      1.0000 0.71260  0.69380  0.81690  Biso   1.000  H
  H35      1.0000 0.74060  0.64450  0.85650  Biso   1.000  H
  C39      1.0000 0.72930  0.61530  0.77530  Biso   1.000  C
  H36      1.0000 0.68720  0.59860  0.78190  Biso   1.000  H
  H37      1.0000 0.72950  0.63340  0.73840  Biso   1.000  H
  C40      1.0000 0.82420  0.56200  0.74060  Biso   1.000  C
  H38      1.0000 0.82790  0.58400  0.70760  Biso   1.000  H
  C41      1.0000 0.78580  0.52720  0.82040  Biso   1.000  C
  H39      1.0000 0.76020  0.52020  0.85170  Biso   1.000  H
  C42      1.0000 0.84120  0.49930  0.80500  Biso   1.000  C
  H40      1.0000 0.86080  0.46900  0.82520  Biso   1.000  H
  C43      1.0000 0.96590  0.65470  0.50100  Biso   1.000  C
  C44      1.0000 0.90860  0.61350  0.50600  Biso   1.000  C
  Zn3      1.0000 0.43796  0.99819  0.71204  Biso   1.000  Zn
  N17      1.0000 0.46110  0.06600  0.66610  Biso   1.000  N
  N18      1.0000 0.49190  0.11960  0.59630  Biso   1.000  N
  N19      1.0000 0.41910  0.06890  0.33640  Biso   1.000  N
  N20      1.0000 0.38330  0.11850  0.40620  Biso   1.000  N
  N21      1.0000 0.30540  0.23000  0.90560  Biso   1.000  N
  N22      1.0000 0.25330  0.22940  0.98440  Biso   1.000  N
  N23      1.0000 0.36350  0.02210  0.75570  Biso   1.000  N
  N24      1.0000 0.27700  0.06870  0.77770  Biso   1.000  N
  C45      1.0000 0.48410  0.06720  0.61460  Biso   1.000  C
  H41      1.0000 0.49360  0.03320  0.59390  Biso   1.000  H
  C46      1.0000 0.47480  0.15970  0.63640  Biso   1.000  C
  H42      1.0000 0.47720  0.20100  0.63470  Biso   1.000  H
  C47      1.0000 0.45410  0.12640  0.67840  Biso   1.000  C
  H43      1.0000 0.43710  0.14120  0.71170  Biso   1.000  H
  C48      1.0000 0.51670  0.13340  0.54100  Biso   1.000  C
  C49      1.0000 0.47030  0.11770  0.49420  Biso   1.000  C
  C50      1.0000 0.41510  0.16110  0.49430  Biso   1.000  C
  C51      1.0000 0.35880  0.13300  0.46380  Biso   1.000  C
  C52      1.0000 0.39290  0.06490  0.38430  Biso   1.000  C
  H44      1.0000 0.38200  0.02930  0.40170  Biso   1.000  H
  C53      1.0000 0.40210  0.15460  0.37200  Biso   1.000  C
  H45      1.0000 0.40250  0.19560  0.37720  Biso   1.000  H
  C54      1.0000 0.42290  0.12530  0.32400  Biso   1.000  C
  H46      1.0000 0.43660  0.14210  0.29040  Biso   1.000  H
  C55      1.0000 0.25530  0.25020  0.93160  Biso   1.000  C
  H47      1.0000 0.22510  0.27540  0.91580  Biso   1.000  H
  C56      1.0000 0.30800  0.19120  0.99020  Biso   1.000  C
  H48      1.0000 0.31970  0.16780  0.02070  Biso   1.000  H
  C57      1.0000 0.33680  0.19750  0.94270  Biso   1.000  C
  H49      1.0000 0.37640  0.18040  0.93510  Biso   1.000  H
  C58      1.0000 0.31820  0.24150  0.84670  Biso   1.000  C
  H50      1.0000 0.28940  0.27230  0.83350  Biso   1.000  H
  H51      1.0000 0.36160  0.25600  0.84270  Biso   1.000  H
  C59      1.0000 0.30980  0.18640  0.81060  Biso   1.000  C
  H52      1.0000 0.31580  0.19650  0.77140  Biso   1.000  H
  H53      1.0000 0.34140  0.15680  0.82090  Biso   1.000  H
  C60      1.0000 0.24370  0.16190  0.81940  Biso   1.000  C
  H54      1.0000 0.21260  0.19380  0.81690  Biso   1.000  H
  H55      1.0000 0.24060  0.14450  0.85650  Biso   1.000  H
  C61      1.0000 0.22930  0.11530  0.77530  Biso   1.000  C
  H56      1.0000 0.18720  0.09860  0.78190  Biso   1.000  H
  H57      1.0000 0.22950  0.13340  0.73840  Biso   1.000  H
  C62      1.0000 0.32420  0.06200  0.74060  Biso   1.000  C
  H58      1.0000 0.32790  0.08400  0.70760  Biso   1.000  H
  C63      1.0000 0.28580  0.02720  0.82040  Biso   1.000  C
  H59      1.0000 0.26020  0.02020  0.85170  Biso   1.000  H
  C64      1.0000 0.34120  0.99930  0.80500  Biso   1.000  C
  H60      1.0000 0.36080  0.96900  0.82520  Biso   1.000  H
  C65      1.0000 0.46590  0.15470  0.50100  Biso   1.000  C
  C66      1.0000 0.40860  0.11350  0.50600  Biso   1.000  C
  Zn4      1.0000 0.43796  0.49819  0.21204  Biso   1.000  Zn
  N25      1.0000 0.46110  0.56600  0.16610  Biso   1.000  N
  N26      1.0000 0.49190  0.61960  0.09630  Biso   1.000  N
  N27      1.0000 0.41910  0.56890  0.83640  Biso   1.000  N
  N28      1.0000 0.38330  0.61850  0.90620  Biso   1.000  N
  N29      1.0000 0.30540  0.73000  0.40560  Biso   1.000  N
  N30      1.0000 0.25330  0.72940  0.48440  Biso   1.000  N
  N31      1.0000 0.36350  0.52210  0.25570  Biso   1.000  N
  N32      1.0000 0.27700  0.56870  0.27770  Biso   1.000  N
  C67      1.0000 0.48410  0.56720  0.11460  Biso   1.000  C
  H61      1.0000 0.49360  0.53320  0.09390  Biso   1.000  H
  C68      1.0000 0.47480  0.65970  0.13640  Biso   1.000  C
  H62      1.0000 0.47720  0.70100  0.13470  Biso   1.000  H
  C69      1.0000 0.45410  0.62640  0.17840  Biso   1.000  C
  H63      1.0000 0.43710  0.64120  0.21170  Biso   1.000  H
  C70      1.0000 0.51670  0.63340  0.04100  Biso   1.000  C
  C71      1.0000 0.47030  0.61770  0.99420  Biso   1.000  C
  C72      1.0000 0.41510  0.66110  0.99430  Biso   1.000  C
  C73      1.0000 0.35880  0.63300  0.96380  Biso   1.000  C
  C74      1.0000 0.39290  0.56490  0.88430  Biso   1.000  C
  H64      1.0000 0.38200  0.52930  0.90170  Biso   1.000  H
  C75      1.0000 0.40210  0.65460  0.87200  Biso   1.000  C
  H65      1.0000 0.40250  0.69560  0.87720  Biso   1.000  H
  C76      1.0000 0.42290  0.62530  0.82400  Biso   1.000  C
  H66      1.0000 0.43660  0.64210  0.79040  Biso   1.000  H
  C77      1.0000 0.25530  0.75020  0.43160  Biso   1.000  C
  H67      1.0000 0.22510  0.77540  0.41580  Biso   1.000  H
  C78      1.0000 0.30800  0.69120  0.49020  Biso   1.000  C
  H68      1.0000 0.31970  0.66780  0.52070  Biso   1.000  H
  C79      1.0000 0.33680  0.69750  0.44270  Biso   1.000  C
  H69      1.0000 0.37640  0.68040  0.43510  Biso   1.000  H
  C80      1.0000 0.31820  0.74150  0.34670  Biso   1.000  C
  H70      1.0000 0.28940  0.77230  0.33350  Biso   1.000  H
  H71      1.0000 0.36160  0.75600  0.34270  Biso   1.000  H
  C81      1.0000 0.30980  0.68640  0.31060  Biso   1.000  C
  H72      1.0000 0.31580  0.69650  0.27140  Biso   1.000  H
  H73      1.0000 0.34140  0.65680  0.32090  Biso   1.000  H
  C82      1.0000 0.24370  0.66190  0.31940  Biso   1.000  C
  H74      1.0000 0.21260  0.69380  0.31690  Biso   1.000  H
  H75      1.0000 0.24060  0.64450  0.35650  Biso   1.000  H
  C83      1.0000 0.22930  0.61530  0.27530  Biso   1.000  C
  H76      1.0000 0.18720  0.59860  0.28190  Biso   1.000  H
  H77      1.0000 0.22950  0.63340  0.23840  Biso   1.000  H
  C84      1.0000 0.32420  0.56200  0.24060  Biso   1.000  C
  H78      1.0000 0.32790  0.58400  0.20760  Biso   1.000  H
  C85      1.0000 0.28580  0.52720  0.32040  Biso   1.000  C
  H79      1.0000 0.26020  0.52020  0.35170  Biso   1.000  H
  C86      1.0000 0.34120  0.49930  0.30500  Biso   1.000  C
  H80      1.0000 0.36080  0.46900  0.32520  Biso   1.000  H
  C87      1.0000 0.46590  0.65470  0.00100  Biso   1.000  C
  C88      1.0000 0.40860  0.61350  0.00600  Biso   1.000  C
  Zn5      1.0000 0.93796  0.00181  0.78796  Biso   1.000  Zn
  N33      1.0000 0.96110  0.93400  0.83390  Biso   1.000  N
  N34      1.0000 0.99190  0.88040  0.90370  Biso   1.000  N
  N35      1.0000 0.91910  0.93110  0.16360  Biso   1.000  N
  N36      1.0000 0.88330  0.88150  0.09380  Biso   1.000  N
  N37      1.0000 0.80540  0.77000  0.59440  Biso   1.000  N
  N38      1.0000 0.75330  0.77060  0.51560  Biso   1.000  N
  N39      1.0000 0.86350  0.97790  0.74430  Biso   1.000  N
  N40      1.0000 0.77700  0.93130  0.72230  Biso   1.000  N
  C89      1.0000 0.98410  0.93280  0.88540  Biso   1.000  C
  H81      1.0000 0.99360  0.96680  0.90610  Biso   1.000  H
  C90      1.0000 0.97480  0.84030  0.86360  Biso   1.000  C
  H82      1.0000 0.97720  0.79900  0.86530  Biso   1.000  H
  C91      1.0000 0.95410  0.87360  0.82160  Biso   1.000  C
  H83      1.0000 0.93710  0.85880  0.78830  Biso   1.000  H
  C92      1.0000 0.01670  0.86660  0.95900  Biso   1.000  C
  C93      1.0000 0.97030  0.88230  0.00580  Biso   1.000  C
  C94      1.0000 0.91510  0.83890  0.00570  Biso   1.000  C
  C95      1.0000 0.85880  0.86700  0.03620  Biso   1.000  C
  C96      1.0000 0.89290  0.93510  0.11570  Biso   1.000  C
  H84      1.0000 0.88200  0.97070  0.09830  Biso   1.000  H
  C97      1.0000 0.90210  0.84540  0.12800  Biso   1.000  C
  H85      1.0000 0.90250  0.80440  0.12280  Biso   1.000  H
  C98      1.0000 0.92290  0.87470  0.17600  Biso   1.000  C
  H86      1.0000 0.93660  0.85790  0.20960  Biso   1.000  H
  C99      1.0000 0.75530  0.74980  0.56840  Biso   1.000  C
  H87      1.0000 0.72510  0.72460  0.58420  Biso   1.000  H
  C100     1.0000 0.80800  0.80880  0.50980  Biso   1.000  C
  H88      1.0000 0.81970  0.83220  0.47930  Biso   1.000  H
  C101     1.0000 0.83680  0.80250  0.55730  Biso   1.000  C
  H89      1.0000 0.87640  0.81960  0.56490  Biso   1.000  H
  C102     1.0000 0.81820  0.75850  0.65330  Biso   1.000  C
  H90      1.0000 0.78940  0.72770  0.66650  Biso   1.000  H
  H91      1.0000 0.86160  0.74400  0.65730  Biso   1.000  H
  C103     1.0000 0.80980  0.81360  0.68940  Biso   1.000  C
  H92      1.0000 0.81580  0.80350  0.72860  Biso   1.000  H
  H93      1.0000 0.84140  0.84320  0.67910  Biso   1.000  H
  C104     1.0000 0.74370  0.83810  0.68060  Biso   1.000  C
  H94      1.0000 0.71260  0.80620  0.68310  Biso   1.000  H
  H95      1.0000 0.74060  0.85550  0.64350  Biso   1.000  H
  C105     1.0000 0.72930  0.88470  0.72470  Biso   1.000  C
  H96      1.0000 0.68720  0.90140  0.71810  Biso   1.000  H
  H97      1.0000 0.72950  0.86660  0.76160  Biso   1.000  H
  C106     1.0000 0.82420  0.93800  0.75940  Biso   1.000  C
  H98      1.0000 0.82790  0.91600  0.79240  Biso   1.000  H
  C107     1.0000 0.78580  0.97280  0.67960  Biso   1.000  C
  H99      1.0000 0.76020  0.97980  0.64830  Biso   1.000  H
  C108     1.0000 0.84120  0.00070  0.69500  Biso   1.000  C
  H100     1.0000 0.86080  0.03100  0.67480  Biso   1.000  H
  C109     1.0000 0.96590  0.84530  0.99900  Biso   1.000  C
  C110     1.0000 0.90860  0.88650  0.99400  Biso   1.000  C
  Zn6      1.0000 0.93796  0.50181  0.28796  Biso   1.000  Zn
  N41      1.0000 0.96110  0.43400  0.33390  Biso   1.000  N
  N42      1.0000 0.99190  0.38040  0.40370  Biso   1.000  N
  N43      1.0000 0.91910  0.43110  0.66360  Biso   1.000  N
  N44      1.0000 0.88330  0.38150  0.59380  Biso   1.000  N
  N45      1.0000 0.80540  0.27000  0.09440  Biso   1.000  N
  N46      1.0000 0.75330  0.27060  0.01560  Biso   1.000  N
  N47      1.0000 0.86350  0.47790  0.24430  Biso   1.000  N
  N48      1.0000 0.77700  0.43130  0.22230  Biso   1.000  N
  C111     1.0000 0.98410  0.43280  0.38540  Biso   1.000  C
  H101     1.0000 0.99360  0.46680  0.40610  Biso   1.000  H
  C112     1.0000 0.97480  0.34030  0.36360  Biso   1.000  C
  H102     1.0000 0.97720  0.29900  0.36530  Biso   1.000  H
  C113     1.0000 0.95410  0.37360  0.32160  Biso   1.000  C
  H103     1.0000 0.93710  0.35880  0.28830  Biso   1.000  H
  C114     1.0000 0.01670  0.36660  0.45900  Biso   1.000  C
  C115     1.0000 0.97030  0.38230  0.50580  Biso   1.000  C
  C116     1.0000 0.91510  0.33890  0.50570  Biso   1.000  C
  C117     1.0000 0.85880  0.36700  0.53620  Biso   1.000  C
  C118     1.0000 0.89290  0.43510  0.61570  Biso   1.000  C
  H104     1.0000 0.88200  0.47070  0.59830  Biso   1.000  H
  C119     1.0000 0.90210  0.34540  0.62800  Biso   1.000  C
  H105     1.0000 0.90250  0.30440  0.62280  Biso   1.000  H
  C120     1.0000 0.92290  0.37470  0.67600  Biso   1.000  C
  H106     1.0000 0.93660  0.35790  0.70960  Biso   1.000  H
  C121     1.0000 0.75530  0.24980  0.06840  Biso   1.000  C
  H107     1.0000 0.72510  0.22460  0.08420  Biso   1.000  H
  C122     1.0000 0.80800  0.30880  0.00980  Biso   1.000  C
  H108     1.0000 0.81970  0.33220  0.97930  Biso   1.000  H
  C123     1.0000 0.83680  0.30250  0.05730  Biso   1.000  C
  H109     1.0000 0.87640  0.31960  0.06490  Biso   1.000  H
  C124     1.0000 0.81820  0.25850  0.15330  Biso   1.000  C
  H110     1.0000 0.78940  0.22770  0.16650  Biso   1.000  H
  H111     1.0000 0.86160  0.24400  0.15730  Biso   1.000  H
  C125     1.0000 0.80980  0.31360  0.18940  Biso   1.000  C
  H112     1.0000 0.81580  0.30350  0.22860  Biso   1.000  H
  H113     1.0000 0.84140  0.34320  0.17910  Biso   1.000  H
  C126     1.0000 0.74370  0.33810  0.18060  Biso   1.000  C
  H114     1.0000 0.71260  0.30620  0.18310  Biso   1.000  H
  H115     1.0000 0.74060  0.35550  0.14350  Biso   1.000  H
  C127     1.0000 0.72930  0.38470  0.22470  Biso   1.000  C
  H116     1.0000 0.68720  0.40140  0.21810  Biso   1.000  H
  H117     1.0000 0.72950  0.36660  0.26160  Biso   1.000  H
  C128     1.0000 0.82420  0.43800  0.25940  Biso   1.000  C
  H118     1.0000 0.82790  0.41600  0.29240  Biso   1.000  H
  C129     1.0000 0.78580  0.47280  0.17960  Biso   1.000  C
  H119     1.0000 0.76020  0.47980  0.14830  Biso   1.000  H
  C130     1.0000 0.84120  0.50070  0.19500  Biso   1.000  C
  H120     1.0000 0.86080  0.53100  0.17480  Biso   1.000  H
  C131     1.0000 0.96590  0.34530  0.49900  Biso   1.000  C
  C132     1.0000 0.90860  0.38650  0.49400  Biso   1.000  C
  Zn7      1.0000 0.43796  0.00181  0.28796  Biso   1.000  Zn
  N49      1.0000 0.46110  0.93400  0.33390  Biso   1.000  N
  N50      1.0000 0.49190  0.88040  0.40370  Biso   1.000  N
  N51      1.0000 0.41910  0.93110  0.66360  Biso   1.000  N
  N52      1.0000 0.38330  0.88150  0.59380  Biso   1.000  N
  N53      1.0000 0.30540  0.77000  0.09440  Biso   1.000  N
  N54      1.0000 0.25330  0.77060  0.01560  Biso   1.000  N
  N55      1.0000 0.36350  0.97790  0.24430  Biso   1.000  N
  N56      1.0000 0.27700  0.93130  0.22230  Biso   1.000  N
  C133     1.0000 0.48410  0.93280  0.38540  Biso   1.000  C
  H121     1.0000 0.49360  0.96680  0.40610  Biso   1.000  H
  C134     1.0000 0.47480  0.84030  0.36360  Biso   1.000  C
  H122     1.0000 0.47720  0.79900  0.36530  Biso   1.000  H
  C135     1.0000 0.45410  0.87360  0.32160  Biso   1.000  C
  H123     1.0000 0.43710  0.85880  0.28830  Biso   1.000  H
  C136     1.0000 0.51670  0.86660  0.45900  Biso   1.000  C
  C137     1.0000 0.47030  0.88230  0.50580  Biso   1.000  C
  C138     1.0000 0.41510  0.83890  0.50570  Biso   1.000  C
  C139     1.0000 0.35880  0.86700  0.53620  Biso   1.000  C
  C140     1.0000 0.39290  0.93510  0.61570  Biso   1.000  C
  H124     1.0000 0.38200  0.97070  0.59830  Biso   1.000  H
  C141     1.0000 0.40210  0.84540  0.62800  Biso   1.000  C
  H125     1.0000 0.40250  0.80440  0.62280  Biso   1.000  H
  C142     1.0000 0.42290  0.87470  0.67600  Biso   1.000  C
  H126     1.0000 0.43660  0.85790  0.70960  Biso   1.000  H
  C143     1.0000 0.25530  0.74980  0.06840  Biso   1.000  C
  H127     1.0000 0.22510  0.72460  0.08420  Biso   1.000  H
  C144     1.0000 0.30800  0.80880  0.00980  Biso   1.000  C
  H128     1.0000 0.31970  0.83220  0.97930  Biso   1.000  H
  C145     1.0000 0.33680  0.80250  0.05730  Biso   1.000  C
  H129     1.0000 0.37640  0.81960  0.06490  Biso   1.000  H
  C146     1.0000 0.31820  0.75850  0.15330  Biso   1.000  C
  H130     1.0000 0.28940  0.72770  0.16650  Biso   1.000  H
  H131     1.0000 0.36160  0.74400  0.15730  Biso   1.000  H
  C147     1.0000 0.30980  0.81360  0.18940  Biso   1.000  C
  H132     1.0000 0.31580  0.80350  0.22860  Biso   1.000  H
  H133     1.0000 0.34140  0.84320  0.17910  Biso   1.000  H
  C148     1.0000 0.24370  0.83810  0.18060  Biso   1.000  C
  H134     1.0000 0.21260  0.80620  0.18310  Biso   1.000  H
  H135     1.0000 0.24060  0.85550  0.14350  Biso   1.000  H
  C149     1.0000 0.22930  0.88470  0.22470  Biso   1.000  C
  H136     1.0000 0.18720  0.90140  0.21810  Biso   1.000  H
  H137     1.0000 0.22950  0.86660  0.26160  Biso   1.000  H
  C150     1.0000 0.32420  0.93800  0.25940  Biso   1.000  C
  H138     1.0000 0.32790  0.91600  0.29240  Biso   1.000  H
  C151     1.0000 0.28580  0.97280  0.17960  Biso   1.000  C
  H139     1.0000 0.26020  0.97980  0.14830  Biso   1.000  H
  C152     1.0000 0.34120  0.00070  0.19500  Biso   1.000  C
  H140     1.0000 0.36080  0.03100  0.17480  Biso   1.000  H
  C153     1.0000 0.46590  0.84530  0.49900  Biso   1.000  C
  C154     1.0000 0.40860  0.88650  0.49400  Biso   1.000  C
  Zn8      1.0000 0.43796  0.50181  0.78796  Biso   1.000  Zn
  N57      1.0000 0.46110  0.43400  0.83390  Biso   1.000  N
  N58      1.0000 0.49190  0.38040  0.90370  Biso   1.000  N
  N59      1.0000 0.41910  0.43110  0.16360  Biso   1.000  N
  N60      1.0000 0.38330  0.38150  0.09380  Biso   1.000  N
  N61      1.0000 0.30540  0.27000  0.59440  Biso   1.000  N
  N62      1.0000 0.25330  0.27060  0.51560  Biso   1.000  N
  N63      1.0000 0.36350  0.47790  0.74430  Biso   1.000  N
  N64      1.0000 0.27700  0.43130  0.72230  Biso   1.000  N
  C155     1.0000 0.48410  0.43280  0.88540  Biso   1.000  C
  H141     1.0000 0.49360  0.46680  0.90610  Biso   1.000  H
  C156     1.0000 0.47480  0.34030  0.86360  Biso   1.000  C
  H142     1.0000 0.47720  0.29900  0.86530  Biso   1.000  H
  C157     1.0000 0.45410  0.37360  0.82160  Biso   1.000  C
  H143     1.0000 0.43710  0.35880  0.78830  Biso   1.000  H
  C158     1.0000 0.51670  0.36660  0.95900  Biso   1.000  C
  C159     1.0000 0.47030  0.38230  0.00580  Biso   1.000  C
  C160     1.0000 0.41510  0.33890  0.00570  Biso   1.000  C
  C161     1.0000 0.35880  0.36700  0.03620  Biso   1.000  C
  C162     1.0000 0.39290  0.43510  0.11570  Biso   1.000  C
  H144     1.0000 0.38200  0.47070  0.09830  Biso   1.000  H
  C163     1.0000 0.40210  0.34540  0.12800  Biso   1.000  C
  H145     1.0000 0.40250  0.30440  0.12280  Biso   1.000  H
  C164     1.0000 0.42290  0.37470  0.17600  Biso   1.000  C
  H146     1.0000 0.43660  0.35790  0.20960  Biso   1.000  H
  C165     1.0000 0.25530  0.24980  0.56840  Biso   1.000  C
  H147     1.0000 0.22510  0.22460  0.58420  Biso   1.000  H
  C166     1.0000 0.30800  0.30880  0.50980  Biso   1.000  C
  H148     1.0000 0.31970  0.33220  0.47930  Biso   1.000  H
  C167     1.0000 0.33680  0.30250  0.55730  Biso   1.000  C
  H149     1.0000 0.37640  0.31960  0.56490  Biso   1.000  H
  C168     1.0000 0.31820  0.25850  0.65330  Biso   1.000  C
  H150     1.0000 0.28940  0.22770  0.66650  Biso   1.000  H
  H151     1.0000 0.36160  0.24400  0.65730  Biso   1.000  H
  C169     1.0000 0.30980  0.31360  0.68940  Biso   1.000  C
  H152     1.0000 0.31580  0.30350  0.72860  Biso   1.000  H
  H153     1.0000 0.34140  0.34320  0.67910  Biso   1.000  H
  C170     1.0000 0.24370  0.33810  0.68060  Biso   1.000  C
  H154     1.0000 0.21260  0.30620  0.68310  Biso   1.000  H
  H155     1.0000 0.24060  0.35550  0.64350  Biso   1.000  H
  C171     1.0000 0.22930  0.38470  0.72470  Biso   1.000  C
  H156     1.0000 0.18720  0.40140  0.71810  Biso   1.000  H
  H157     1.0000 0.22950  0.36660  0.76160  Biso   1.000  H
  C172     1.0000 0.32420  0.43800  0.75940  Biso   1.000  C
  H158     1.0000 0.32790  0.41600  0.79240  Biso   1.000  H
  C173     1.0000 0.28580  0.47280  0.67960  Biso   1.000  C
  H159     1.0000 0.26020  0.47980  0.64830  Biso   1.000  H
  C174     1.0000 0.34120  0.50070  0.69500  Biso   1.000  C
  H160     1.0000 0.36080  0.53100  0.67480  Biso   1.000  H
  C175     1.0000 0.46590  0.34530  0.99900  Biso   1.000  C
  C176     1.0000 0.40860  0.38650  0.99400  Biso   1.000  C
  Zn9      1.0000 0.68796  0.74819  0.03796  Biso   1.000  Zn
  N65      1.0000 0.71110  0.81600  0.08390  Biso   1.000  N
  N66      1.0000 0.74190  0.86960  0.15370  Biso   1.000  N
  N67      1.0000 0.66910  0.81890  0.41360  Biso   1.000  N
  N68      1.0000 0.63330  0.86850  0.34380  Biso   1.000  N
  N69      1.0000 0.55540  0.98000  0.84440  Biso   1.000  N
  N70      1.0000 0.50330  0.97940  0.76560  Biso   1.000  N
  N71      1.0000 0.61350  0.77210  0.99430  Biso   1.000  N
  N72      1.0000 0.52700  0.81870  0.97230  Biso   1.000  N
  C177     1.0000 0.73410  0.81720  0.13540  Biso   1.000  C
  H161     1.0000 0.74360  0.78320  0.15610  Biso   1.000  H
  C178     1.0000 0.72480  0.90970  0.11360  Biso   1.000  C
  H162     1.0000 0.72720  0.95100  0.11530  Biso   1.000  H
  C179     1.0000 0.70410  0.87640  0.07160  Biso   1.000  C
  H163     1.0000 0.68710  0.89120  0.03830  Biso   1.000  H
  C180     1.0000 0.76670  0.88340  0.20900  Biso   1.000  C
  C181     1.0000 0.72030  0.86770  0.25580  Biso   1.000  C
  C182     1.0000 0.66510  0.91110  0.25570  Biso   1.000  C
  C183     1.0000 0.60880  0.88300  0.28620  Biso   1.000  C
  C184     1.0000 0.64290  0.81490  0.36570  Biso   1.000  C
  H164     1.0000 0.63200  0.77930  0.34830  Biso   1.000  H
  C185     1.0000 0.65210  0.90460  0.37800  Biso   1.000  C
  H165     1.0000 0.65250  0.94560  0.37280  Biso   1.000  H
  C186     1.0000 0.67290  0.87530  0.42600  Biso   1.000  C
  H166     1.0000 0.68660  0.89210  0.45960  Biso   1.000  H
  C187     1.0000 0.50530  0.00020  0.81840  Biso   1.000  C
  H167     1.0000 0.47510  0.02540  0.83420  Biso   1.000  H
  C188     1.0000 0.55800  0.94120  0.75980  Biso   1.000  C
  H168     1.0000 0.56970  0.91780  0.72930  Biso   1.000  H
  C189     1.0000 0.58680  0.94750  0.80730  Biso   1.000  C
  H169     1.0000 0.62640  0.93040  0.81490  Biso   1.000  H
  C190     1.0000 0.56820  0.99150  0.90330  Biso   1.000  C
  H170     1.0000 0.53940  0.02230  0.91650  Biso   1.000  H
  H171     1.0000 0.61160  0.00600  0.90730  Biso   1.000  H
  C191     1.0000 0.55980  0.93640  0.93940  Biso   1.000  C
  H172     1.0000 0.56580  0.94650  0.97860  Biso   1.000  H
  H173     1.0000 0.59140  0.90680  0.92910  Biso   1.000  H
  C192     1.0000 0.49370  0.91190  0.93060  Biso   1.000  C
  H174     1.0000 0.46260  0.94380  0.93310  Biso   1.000  H
  H175     1.0000 0.49060  0.89450  0.89350  Biso   1.000  H
  C193     1.0000 0.47930  0.86530  0.97470  Biso   1.000  C
  H176     1.0000 0.43720  0.84860  0.96810  Biso   1.000  H
  H177     1.0000 0.47950  0.88340  0.01160  Biso   1.000  H
  C194     1.0000 0.57420  0.81200  0.00940  Biso   1.000  C
  H178     1.0000 0.57790  0.83400  0.04240  Biso   1.000  H
  C195     1.0000 0.53580  0.77720  0.92960  Biso   1.000  C
  H179     1.0000 0.51020  0.77020  0.89830  Biso   1.000  H
  C196     1.0000 0.59120  0.74930  0.94500  Biso   1.000  C
  H180     1.0000 0.61080  0.71900  0.92480  Biso   1.000  H
  C197     1.0000 0.71590  0.90470  0.24900  Biso   1.000  C
  C198     1.0000 0.65860  0.86350  0.24400  Biso   1.000  C
  Zn10     1.0000 0.68796  0.24819  0.53796  Biso   1.000  Zn
  N73      1.0000 0.71110  0.31600  0.58390  Biso   1.000  N
  N74      1.0000 0.74190  0.36960  0.65370  Biso   1.000  N
  N75      1.0000 0.66910  0.31890  0.91360  Biso   1.000  N
  N76      1.0000 0.63330  0.36850  0.84380  Biso   1.000  N
  N77      1.0000 0.55540  0.48000  0.34440  Biso   1.000  N
  N78      1.0000 0.50330  0.47940  0.26560  Biso   1.000  N
  N79      1.0000 0.61350  0.27210  0.49430  Biso   1.000  N
  N80      1.0000 0.52700  0.31870  0.47230  Biso   1.000  N
  C199     1.0000 0.73410  0.31720  0.63540  Biso   1.000  C
  H181     1.0000 0.74360  0.28320  0.65610  Biso   1.000  H
  C200     1.0000 0.72480  0.40970  0.61360  Biso   1.000  C
  H182     1.0000 0.72720  0.45100  0.61530  Biso   1.000  H
  C201     1.0000 0.70410  0.37640  0.57160  Biso   1.000  C
  H183     1.0000 0.68710  0.39120  0.53830  Biso   1.000  H
  C202     1.0000 0.76670  0.38340  0.70900  Biso   1.000  C
  C203     1.0000 0.72030  0.36770  0.75580  Biso   1.000  C
  C204     1.0000 0.66510  0.41110  0.75570  Biso   1.000  C
  C205     1.0000 0.60880  0.38300  0.78620  Biso   1.000  C
  C206     1.0000 0.64290  0.31490  0.86570  Biso   1.000  C
  H184     1.0000 0.63200  0.27930  0.84830  Biso   1.000  H
  C207     1.0000 0.65210  0.40460  0.87800  Biso   1.000  C
  H185     1.0000 0.65250  0.44560  0.87280  Biso   1.000  H
  C208     1.0000 0.67290  0.37530  0.92600  Biso   1.000  C
  H186     1.0000 0.68660  0.39210  0.95960  Biso   1.000  H
  C209     1.0000 0.50530  0.50020  0.31840  Biso   1.000  C
  H187     1.0000 0.47510  0.52540  0.33420  Biso   1.000  H
  C210     1.0000 0.55800  0.44120  0.25980  Biso   1.000  C
  H188     1.0000 0.56970  0.41780  0.22930  Biso   1.000  H
  C211     1.0000 0.58680  0.44750  0.30730  Biso   1.000  C
  H189     1.0000 0.62640  0.43040  0.31490  Biso   1.000  H
  C212     1.0000 0.56820  0.49150  0.40330  Biso   1.000  C
  H190     1.0000 0.53940  0.52230  0.41650  Biso   1.000  H
  H191     1.0000 0.61160  0.50600  0.40730  Biso   1.000  H
  C213     1.0000 0.55980  0.43640  0.43940  Biso   1.000  C
  H192     1.0000 0.56580  0.44650  0.47860  Biso   1.000  H
  H193     1.0000 0.59140  0.40680  0.42910  Biso   1.000  H
  C214     1.0000 0.49370  0.41190  0.43060  Biso   1.000  C
  H194     1.0000 0.46260  0.44380  0.43310  Biso   1.000  H
  H195     1.0000 0.49060  0.39450  0.39350  Biso   1.000  H
  C215     1.0000 0.47930  0.36530  0.47470  Biso   1.000  C
  H196     1.0000 0.43720  0.34860  0.46810  Biso   1.000  H
  H197     1.0000 0.47950  0.38340  0.51160  Biso   1.000  H
  C216     1.0000 0.57420  0.31200  0.50940  Biso   1.000  C
  H198     1.0000 0.57790  0.33400  0.54240  Biso   1.000  H
  C217     1.0000 0.53580  0.27720  0.42960  Biso   1.000  C
  H199     1.0000 0.51020  0.27020  0.39830  Biso   1.000  H
  C218     1.0000 0.59120  0.24930  0.44500  Biso   1.000  C
  H200     1.0000 0.61080  0.21900  0.42480  Biso   1.000  H
  C219     1.0000 0.71590  0.40470  0.74900  Biso   1.000  C
  C220     1.0000 0.65860  0.36350  0.74400  Biso   1.000  C
  Zn11     1.0000 0.18796  0.74819  0.53796  Biso   1.000  Zn
  N81      1.0000 0.21110  0.81600  0.58390  Biso   1.000  N
  N82      1.0000 0.24190  0.86960  0.65370  Biso   1.000  N
  N83      1.0000 0.16910  0.81890  0.91360  Biso   1.000  N
  N84      1.0000 0.13330  0.86850  0.84380  Biso   1.000  N
  N85      1.0000 0.05540  0.98000  0.34440  Biso   1.000  N
  N86      1.0000 0.00330  0.97940  0.26560  Biso   1.000  N
  N87      1.0000 0.11350  0.77210  0.49430  Biso   1.000  N
  N88      1.0000 0.02700  0.81870  0.47230  Biso   1.000  N
  C221     1.0000 0.23410  0.81720  0.63540  Biso   1.000  C
  H201     1.0000 0.24360  0.78320  0.65610  Biso   1.000  H
  C222     1.0000 0.22480  0.90970  0.61360  Biso   1.000  C
  H202     1.0000 0.22720  0.95100  0.61530  Biso   1.000  H
  C223     1.0000 0.20410  0.87640  0.57160  Biso   1.000  C
  H203     1.0000 0.18710  0.89120  0.53830  Biso   1.000  H
  C224     1.0000 0.26670  0.88340  0.70900  Biso   1.000  C
  C225     1.0000 0.22030  0.86770  0.75580  Biso   1.000  C
  C226     1.0000 0.16510  0.91110  0.75570  Biso   1.000  C
  C227     1.0000 0.10880  0.88300  0.78620  Biso   1.000  C
  C228     1.0000 0.14290  0.81490  0.86570  Biso   1.000  C
  H204     1.0000 0.13200  0.77930  0.84830  Biso   1.000  H
  C229     1.0000 0.15210  0.90460  0.87800  Biso   1.000  C
  H205     1.0000 0.15250  0.94560  0.87280  Biso   1.000  H
  C230     1.0000 0.17290  0.87530  0.92600  Biso   1.000  C
  H206     1.0000 0.18660  0.89210  0.95960  Biso   1.000  H
  C231     1.0000 0.00530  0.00020  0.31840  Biso   1.000  C
  H207     1.0000 0.97510  0.02540  0.33420  Biso   1.000  H
  C232     1.0000 0.05800  0.94120  0.25980  Biso   1.000  C
  H208     1.0000 0.06970  0.91780  0.22930  Biso   1.000  H
  C233     1.0000 0.08680  0.94750  0.30730  Biso   1.000  C
  H209     1.0000 0.12640  0.93040  0.31490  Biso   1.000  H
  C234     1.0000 0.06820  0.99150  0.40330  Biso   1.000  C
  H210     1.0000 0.03940  0.02230  0.41650  Biso   1.000  H
  H211     1.0000 0.11160  0.00600  0.40730  Biso   1.000  H
  C235     1.0000 0.05980  0.93640  0.43940  Biso   1.000  C
  H212     1.0000 0.06580  0.94650  0.47860  Biso   1.000  H
  H213     1.0000 0.09140  0.90680  0.42910  Biso   1.000  H
  C236     1.0000 0.99370  0.91190  0.43060  Biso   1.000  C
  H214     1.0000 0.96260  0.94380  0.43310  Biso   1.000  H
  H215     1.0000 0.99060  0.89450  0.39350  Biso   1.000  H
  C237     1.0000 0.97930  0.86530  0.47470  Biso   1.000  C
  H216     1.0000 0.93720  0.84860  0.46810  Biso   1.000  H
  H217     1.0000 0.97950  0.88340  0.51160  Biso   1.000  H
  C238     1.0000 0.07420  0.81200  0.50940  Biso   1.000  C
  H218     1.0000 0.07790  0.83400  0.54240  Biso   1.000  H
  C239     1.0000 0.03580  0.77720  0.42960  Biso   1.000  C
  H219     1.0000 0.01020  0.77020  0.39830  Biso   1.000  H
  C240     1.0000 0.09120  0.74930  0.44500  Biso   1.000  C
  H220     1.0000 0.11080  0.71900  0.42480  Biso   1.000  H
  C241     1.0000 0.21590  0.90470  0.74900  Biso   1.000  C
  C242     1.0000 0.15860  0.86350  0.74400  Biso   1.000  C
  Zn12     1.0000 0.18796  0.24819  0.03796  Biso   1.000  Zn
  N89      1.0000 0.21110  0.31600  0.08390  Biso   1.000  N
  N90      1.0000 0.24190  0.36960  0.15370  Biso   1.000  N
  N91      1.0000 0.16910  0.31890  0.41360  Biso   1.000  N
  N92      1.0000 0.13330  0.36850  0.34380  Biso   1.000  N
  N93      1.0000 0.05540  0.48000  0.84440  Biso   1.000  N
  N94      1.0000 0.00330  0.47940  0.76560  Biso   1.000  N
  N95      1.0000 0.11350  0.27210  0.99430  Biso   1.000  N
  N96      1.0000 0.02700  0.31870  0.97230  Biso   1.000  N
  C243     1.0000 0.23410  0.31720  0.13540  Biso   1.000  C
  H221     1.0000 0.24360  0.28320  0.15610  Biso   1.000  H
  C244     1.0000 0.22480  0.40970  0.11360  Biso   1.000  C
  H222     1.0000 0.22720  0.45100  0.11530  Biso   1.000  H
  C245     1.0000 0.20410  0.37640  0.07160  Biso   1.000  C
  H223     1.0000 0.18710  0.39120  0.03830  Biso   1.000  H
  C246     1.0000 0.26670  0.38340  0.20900  Biso   1.000  C
  C247     1.0000 0.22030  0.36770  0.25580  Biso   1.000  C
  C248     1.0000 0.16510  0.41110  0.25570  Biso   1.000  C
  C249     1.0000 0.10880  0.38300  0.28620  Biso   1.000  C
  C250     1.0000 0.14290  0.31490  0.36570  Biso   1.000  C
  H224     1.0000 0.13200  0.27930  0.34830  Biso   1.000  H
  C251     1.0000 0.15210  0.40460  0.37800  Biso   1.000  C
  H225     1.0000 0.15250  0.44560  0.37280  Biso   1.000  H
  C252     1.0000 0.17290  0.37530  0.42600  Biso   1.000  C
  H226     1.0000 0.18660  0.39210  0.45960  Biso   1.000  H
  C253     1.0000 0.00530  0.50020  0.81840  Biso   1.000  C
  H227     1.0000 0.97510  0.52540  0.83420  Biso   1.000  H
  C254     1.0000 0.05800  0.44120  0.75980  Biso   1.000  C
  H228     1.0000 0.06970  0.41780  0.72930  Biso   1.000  H
  C255     1.0000 0.08680  0.44750  0.80730  Biso   1.000  C
  H229     1.0000 0.12640  0.43040  0.81490  Biso   1.000  H
  C256     1.0000 0.06820  0.49150  0.90330  Biso   1.000  C
  H230     1.0000 0.03940  0.52230  0.91650  Biso   1.000  H
  H231     1.0000 0.11160  0.50600  0.90730  Biso   1.000  H
  C257     1.0000 0.05980  0.43640  0.93940  Biso   1.000  C
  H232     1.0000 0.06580  0.44650  0.97860  Biso   1.000  H
  H233     1.0000 0.09140  0.40680  0.92910  Biso   1.000  H
  C258     1.0000 0.99370  0.41190  0.93060  Biso   1.000  C
  H234     1.0000 0.96260  0.44380  0.93310  Biso   1.000  H
  H235     1.0000 0.99060  0.39450  0.89350  Biso   1.000  H
  C259     1.0000 0.97930  0.36530  0.97470  Biso   1.000  C
  H236     1.0000 0.93720  0.34860  0.96810  Biso   1.000  H
  H237     1.0000 0.97950  0.38340  0.01160  Biso   1.000  H
  C260     1.0000 0.07420  0.31200  0.00940  Biso   1.000  C
  H238     1.0000 0.07790  0.33400  0.04240  Biso   1.000  H
  C261     1.0000 0.03580  0.27720  0.92960  Biso   1.000  C
  H239     1.0000 0.01020  0.27020  0.89830  Biso   1.000  H
  C262     1.0000 0.09120  0.24930  0.94500  Biso   1.000  C
  H240     1.0000 0.11080  0.21900  0.92480  Biso   1.000  H
  C263     1.0000 0.21590  0.40470  0.24900  Biso   1.000  C
  C264     1.0000 0.15860  0.36350  0.24400  Biso   1.000  C
  Zn13     1.0000 0.68796  0.75181  0.46204  Biso   1.000  Zn
  N97      1.0000 0.71110  0.68400  0.41610  Biso   1.000  N
  N98      1.0000 0.74190  0.63040  0.34630  Biso   1.000  N
  N99      1.0000 0.66910  0.68110  0.08640  Biso   1.000  N
  N100     1.0000 0.63330  0.63150  0.15620  Biso   1.000  N
  N101     1.0000 0.55540  0.52000  0.65560  Biso   1.000  N
  N102     1.0000 0.50330  0.52060  0.73440  Biso   1.000  N
  N103     1.0000 0.61350  0.72790  0.50570  Biso   1.000  N
  N104     1.0000 0.52700  0.68130  0.52770  Biso   1.000  N
  C265     1.0000 0.73410  0.68280  0.36460  Biso   1.000  C
  H241     1.0000 0.74360  0.71680  0.34390  Biso   1.000  H
  C266     1.0000 0.72480  0.59030  0.38640  Biso   1.000  C
  H242     1.0000 0.72720  0.54900  0.38470  Biso   1.000  H
  C267     1.0000 0.70410  0.62360  0.42840  Biso   1.000  C
  H243     1.0000 0.68710  0.60880  0.46170  Biso   1.000  H
  C268     1.0000 0.76670  0.61660  0.29100  Biso   1.000  C
  C269     1.0000 0.72030  0.63230  0.24420  Biso   1.000  C
  C270     1.0000 0.66510  0.58890  0.24430  Biso   1.000  C
  C271     1.0000 0.60880  0.61700  0.21380  Biso   1.000  C
  C272     1.0000 0.64290  0.68510  0.13430  Biso   1.000  C
  H244     1.0000 0.63200  0.72070  0.15170  Biso   1.000  H
  C273     1.0000 0.65210  0.59540  0.12200  Biso   1.000  C
  H245     1.0000 0.65250  0.55440  0.12720  Biso   1.000  H
  C274     1.0000 0.67290  0.62470  0.07400  Biso   1.000  C
  H246     1.0000 0.68660  0.60790  0.04040  Biso   1.000  H
  C275     1.0000 0.50530  0.49980  0.68160  Biso   1.000  C
  H247     1.0000 0.47510  0.47460  0.66580  Biso   1.000  H
  C276     1.0000 0.55800  0.55880  0.74020  Biso   1.000  C
  H248     1.0000 0.56970  0.58220  0.77070  Biso   1.000  H
  C277     1.0000 0.58680  0.55250  0.69270  Biso   1.000  C
  H249     1.0000 0.62640  0.56960  0.68510  Biso   1.000  H
  C278     1.0000 0.56820  0.50850  0.59670  Biso   1.000  C
  H250     1.0000 0.53940  0.47770  0.58350  Biso   1.000  H
  H251     1.0000 0.61160  0.49400  0.59270  Biso   1.000  H
  C279     1.0000 0.55980  0.56360  0.56060  Biso   1.000  C
  H252     1.0000 0.56580  0.55350  0.52140  Biso   1.000  H
  H253     1.0000 0.59140  0.59320  0.57090  Biso   1.000  H
  C280     1.0000 0.49370  0.58810  0.56940  Biso   1.000  C
  H254     1.0000 0.46260  0.55620  0.56690  Biso   1.000  H
  H255     1.0000 0.49060  0.60550  0.60650  Biso   1.000  H
  C281     1.0000 0.47930  0.63470  0.52530  Biso   1.000  C
  H256     1.0000 0.43720  0.65140  0.53190  Biso   1.000  H
  H257     1.0000 0.47950  0.61660  0.48840  Biso   1.000  H
  C282     1.0000 0.57420  0.68800  0.49060  Biso   1.000  C
  H258     1.0000 0.57790  0.66600  0.45760  Biso   1.000  H
  C283     1.0000 0.53580  0.72280  0.57040  Biso   1.000  C
  H259     1.0000 0.51020  0.72980  0.60170  Biso   1.000  H
  C284     1.0000 0.59120  0.75070  0.55500  Biso   1.000  C
  H260     1.0000 0.61080  0.78100  0.57520  Biso   1.000  H
  C285     1.0000 0.71590  0.59530  0.25100  Biso   1.000  C
  C286     1.0000 0.65860  0.63650  0.25600  Biso   1.000  C
  Zn14     1.0000 0.68796  0.25181  0.96204  Biso   1.000  Zn
  N105     1.0000 0.71110  0.18400  0.91610  Biso   1.000  N
  N106     1.0000 0.74190  0.13040  0.84630  Biso   1.000  N
  N107     1.0000 0.66910  0.18110  0.58640  Biso   1.000  N
  N108     1.0000 0.63330  0.13150  0.65620  Biso   1.000  N
  N109     1.0000 0.55540  0.02000  0.15560  Biso   1.000  N
  N110     1.0000 0.50330  0.02060  0.23440  Biso   1.000  N
  N111     1.0000 0.61350  0.22790  0.00570  Biso   1.000  N
  N112     1.0000 0.52700  0.18130  0.02770  Biso   1.000  N
  C287     1.0000 0.73410  0.18280  0.86460  Biso   1.000  C
  H261     1.0000 0.74360  0.21680  0.84390  Biso   1.000  H
  C288     1.0000 0.72480  0.09030  0.88640  Biso   1.000  C
  H262     1.0000 0.72720  0.04900  0.88470  Biso   1.000  H
  C289     1.0000 0.70410  0.12360  0.92840  Biso   1.000  C
  H263     1.0000 0.68710  0.10880  0.96170  Biso   1.000  H
  C290     1.0000 0.76670  0.11660  0.79100  Biso   1.000  C
  C291     1.0000 0.72030  0.13230  0.74420  Biso   1.000  C
  C292     1.0000 0.66510  0.08890  0.74430  Biso   1.000  C
  C293     1.0000 0.60880  0.11700  0.71380  Biso   1.000  C
  C294     1.0000 0.64290  0.18510  0.63430  Biso   1.000  C
  H264     1.0000 0.63200  0.22070  0.65170  Biso   1.000  H
  C295     1.0000 0.65210  0.09540  0.62200  Biso   1.000  C
  H265     1.0000 0.65250  0.05440  0.62720  Biso   1.000  H
  C296     1.0000 0.67290  0.12470  0.57400  Biso   1.000  C
  H266     1.0000 0.68660  0.10790  0.54040  Biso   1.000  H
  C297     1.0000 0.50530  0.99980  0.18160  Biso   1.000  C
  H267     1.0000 0.47510  0.97460  0.16580  Biso   1.000  H
  C298     1.0000 0.55800  0.05880  0.24020  Biso   1.000  C
  H268     1.0000 0.56970  0.08220  0.27070  Biso   1.000  H
  C299     1.0000 0.58680  0.05250  0.19270  Biso   1.000  C
  H269     1.0000 0.62640  0.06960  0.18510  Biso   1.000  H
  C300     1.0000 0.56820  0.00850  0.09670  Biso   1.000  C
  H270     1.0000 0.53940  0.97770  0.08350  Biso   1.000  H
  H271     1.0000 0.61160  0.99400  0.09270  Biso   1.000  H
  C301     1.0000 0.55980  0.06360  0.06060  Biso   1.000  C
  H272     1.0000 0.56580  0.05350  0.02140  Biso   1.000  H
  H273     1.0000 0.59140  0.09320  0.07090  Biso   1.000  H
  C302     1.0000 0.49370  0.08810  0.06940  Biso   1.000  C
  H274     1.0000 0.46260  0.05620  0.06690  Biso   1.000  H
  H275     1.0000 0.49060  0.10550  0.10650  Biso   1.000  H
  C303     1.0000 0.47930  0.13470  0.02530  Biso   1.000  C
  H276     1.0000 0.43720  0.15140  0.03190  Biso   1.000  H
  H277     1.0000 0.47950  0.11660  0.98840  Biso   1.000  H
  C304     1.0000 0.57420  0.18800  0.99060  Biso   1.000  C
  H278     1.0000 0.57790  0.16600  0.95760  Biso   1.000  H
  C305     1.0000 0.53580  0.22280  0.07040  Biso   1.000  C
  H279     1.0000 0.51020  0.22980  0.10170  Biso   1.000  H
  C306     1.0000 0.59120  0.25070  0.05500  Biso   1.000  C
  H280     1.0000 0.61080  0.28100  0.07520  Biso   1.000  H
  C307     1.0000 0.71590  0.09530  0.75100  Biso   1.000  C
  C308     1.0000 0.65860  0.13650  0.75600  Biso   1.000  C
  Zn15     1.0000 0.18796  0.75181  0.96204  Biso   1.000  Zn
  N113     1.0000 0.21110  0.68400  0.91610  Biso   1.000  N
  N114     1.0000 0.24190  0.63040  0.84630  Biso   1.000  N
  N115     1.0000 0.16910  0.68110  0.58640  Biso   1.000  N
  N116     1.0000 0.13330  0.63150  0.65620  Biso   1.000  N
  N117     1.0000 0.05540  0.52000  0.15560  Biso   1.000  N
  N118     1.0000 0.00330  0.52060  0.23440  Biso   1.000  N
  N119     1.0000 0.11350  0.72790  0.00570  Biso   1.000  N
  N120     1.0000 0.02700  0.68130  0.02770  Biso   1.000  N
  C309     1.0000 0.23410  0.68280  0.86460  Biso   1.000  C
  H281     1.0000 0.24360  0.71680  0.84390  Biso   1.000  H
  C310     1.0000 0.22480  0.59030  0.88640  Biso   1.000  C
  H282     1.0000 0.22720  0.54900  0.88470  Biso   1.000  H
  C311     1.0000 0.20410  0.62360  0.92840  Biso   1.000  C
  H283     1.0000 0.18710  0.60880  0.96170  Biso   1.000  H
  C312     1.0000 0.26670  0.61660  0.79100  Biso   1.000  C
  C313     1.0000 0.22030  0.63230  0.74420  Biso   1.000  C
  C314     1.0000 0.16510  0.58890  0.74430  Biso   1.000  C
  C315     1.0000 0.10880  0.61700  0.71380  Biso   1.000  C
  C316     1.0000 0.14290  0.68510  0.63430  Biso   1.000  C
  H284     1.0000 0.13200  0.72070  0.65170  Biso   1.000  H
  C317     1.0000 0.15210  0.59540  0.62200  Biso   1.000  C
  H285     1.0000 0.15250  0.55440  0.62720  Biso   1.000  H
  C318     1.0000 0.17290  0.62470  0.57400  Biso   1.000  C
  H286     1.0000 0.18660  0.60790  0.54040  Biso   1.000  H
  C319     1.0000 0.00530  0.49980  0.18160  Biso   1.000  C
  H287     1.0000 0.97510  0.47460  0.16580  Biso   1.000  H
  C320     1.0000 0.05800  0.55880  0.24020  Biso   1.000  C
  H288     1.0000 0.06970  0.58220  0.27070  Biso   1.000  H
  C321     1.0000 0.08680  0.55250  0.19270  Biso   1.000  C
  H289     1.0000 0.12640  0.56960  0.18510  Biso   1.000  H
  C322     1.0000 0.06820  0.50850  0.09670  Biso   1.000  C
  H290     1.0000 0.03940  0.47770  0.08350  Biso   1.000  H
  H291     1.0000 0.11160  0.49400  0.09270  Biso   1.000  H
  C323     1.0000 0.05980  0.56360  0.06060  Biso   1.000  C
  H292     1.0000 0.06580  0.55350  0.02140  Biso   1.000  H
  H293     1.0000 0.09140  0.59320  0.07090  Biso   1.000  H
  C324     1.0000 0.99370  0.58810  0.06940  Biso   1.000  C
  H294     1.0000 0.96260  0.55620  0.06690  Biso   1.000  H
  H295     1.0000 0.99060  0.60550  0.10650  Biso   1.000  H
  C325     1.0000 0.97930  0.63470  0.02530  Biso   1.000  C
  H296     1.0000 0.93720  0.65140  0.03190  Biso   1.000  H
  H297     1.0000 0.97950  0.61660  0.98840  Biso   1.000  H
  C326     1.0000 0.07420  0.68800  0.99060  Biso   1.000  C
  H298     1.0000 0.07790  0.66600  0.95760  Biso   1.000  H
  C327     1.0000 0.03580  0.72280  0.07040  Biso   1.000  C
  H299     1.0000 0.01020  0.72980  0.10170  Biso   1.000  H
  C328     1.0000 0.09120  0.75070  0.05500  Biso   1.000  C
  H300     1.0000 0.11080  0.78100  0.07520  Biso   1.000  H
  C329     1.0000 0.21590  0.59530  0.75100  Biso   1.000  C
  C330     1.0000 0.15860  0.63650  0.75600  Biso   1.000  C
  Zn16     1.0000 0.18796  0.25181  0.46204  Biso   1.000  Zn
  N121     1.0000 0.21110  0.18400  0.41610  Biso   1.000  N
  N122     1.0000 0.24190  0.13040  0.34630  Biso   1.000  N
  N123     1.0000 0.16910  0.18110  0.08640  Biso   1.000  N
  N124     1.0000 0.13330  0.13150  0.15620  Biso   1.000  N
  N125     1.0000 0.05540  0.02000  0.65560  Biso   1.000  N
  N126     1.0000 0.00330  0.02060  0.73440  Biso   1.000  N
  N127     1.0000 0.11350  0.22790  0.50570  Biso   1.000  N
  N128     1.0000 0.02700  0.18130  0.52770  Biso   1.000  N
  C331     1.0000 0.23410  0.18280  0.36460  Biso   1.000  C
  H301     1.0000 0.24360  0.21680  0.34390  Biso   1.000  H
  C332     1.0000 0.22480  0.09030  0.38640  Biso   1.000  C
  H302     1.0000 0.22720  0.04900  0.38470  Biso   1.000  H
  C333     1.0000 0.20410  0.12360  0.42840  Biso   1.000  C
  H303     1.0000 0.18710  0.10880  0.46170  Biso   1.000  H
  C334     1.0000 0.26670  0.11660  0.29100  Biso   1.000  C
  C335     1.0000 0.22030  0.13230  0.24420  Biso   1.000  C
  C336     1.0000 0.16510  0.08890  0.24430  Biso   1.000  C
  C337     1.0000 0.10880  0.11700  0.21380  Biso   1.000  C
  C338     1.0000 0.14290  0.18510  0.13430  Biso   1.000  C
  H304     1.0000 0.13200  0.22070  0.15170  Biso   1.000  H
  C339     1.0000 0.15210  0.09540  0.12200  Biso   1.000  C
  H305     1.0000 0.15250  0.05440  0.12720  Biso   1.000  H
  C340     1.0000 0.17290  0.12470  0.07400  Biso   1.000  C
  H306     1.0000 0.18660  0.10790  0.04040  Biso   1.000  H
  C341     1.0000 0.00530  0.99980  0.68160  Biso   1.000  C
  H307     1.0000 0.97510  0.97460  0.66580  Biso   1.000  H
  C342     1.0000 0.05800  0.05880  0.74020  Biso   1.000  C
  H308     1.0000 0.06970  0.08220  0.77070  Biso   1.000  H
  C343     1.0000 0.08680  0.05250  0.69270  Biso   1.000  C
  H309     1.0000 0.12640  0.06960  0.68510  Biso   1.000  H
  C344     1.0000 0.06820  0.00850  0.59670  Biso   1.000  C
  H310     1.0000 0.03940  0.97770  0.58350  Biso   1.000  H
  H311     1.0000 0.11160  0.99400  0.59270  Biso   1.000  H
  C345     1.0000 0.05980  0.06360  0.56060  Biso   1.000  C
  H312     1.0000 0.06580  0.05350  0.52140  Biso   1.000  H
  H313     1.0000 0.09140  0.09320  0.57090  Biso   1.000  H
  C346     1.0000 0.99370  0.08810  0.56940  Biso   1.000  C
  H314     1.0000 0.96260  0.05620  0.56690  Biso   1.000  H
  H315     1.0000 0.99060  0.10550  0.60650  Biso   1.000  H
  C347     1.0000 0.97930  0.13470  0.52530  Biso   1.000  C
  H316     1.0000 0.93720  0.15140  0.53190  Biso   1.000  H
  H317     1.0000 0.97950  0.11660  0.48840  Biso   1.000  H
  C348     1.0000 0.07420  0.18800  0.49060  Biso   1.000  C
  H318     1.0000 0.07790  0.16600  0.45760  Biso   1.000  H
  C349     1.0000 0.03580  0.22280  0.57040  Biso   1.000  C
  H319     1.0000 0.01020  0.22980  0.60170  Biso   1.000  H
  C350     1.0000 0.09120  0.25070  0.55500  Biso   1.000  C
  H320     1.0000 0.11080  0.28100  0.57520  Biso   1.000  H
  C351     1.0000 0.21590  0.09530  0.25100  Biso   1.000  C
  C352     1.0000 0.15860  0.13650  0.25600  Biso   1.000  C
