data_image0
_cell_length_a       18.5127
_cell_length_b       18.5127
_cell_length_c       78.4908
_cell_angle_alpha    90
_cell_angle_beta     90
_cell_angle_gamma    120

_symmetry_space_group_name_H-M    "P 1"
_symmetry_int_tables_number       1

loop_
  _symmetry_equiv_pos_as_xyz
  'x, y, z'

loop_
  _atom_site_label
  _atom_site_occupancy
  _atom_site_fract_x
  _atom_site_fract_y
  _atom_site_fract_z
  _atom_site_thermal_displace_type
  _atom_site_B_iso_or_equiv
  _atom_site_type_symbol
  Zn1      1.0000 0.54303  0.05514  0.26546  Biso   1.000  Zn
  O1       1.0000 0.42500  0.39190  0.22912  Biso   1.000  O
  O2       1.0000 0.46870  0.35080  0.25186  Biso   1.000  O
  O3       1.0000 0.44870  0.02110  0.22555  Biso   1.000  O
  O4       1.0000 0.48900  0.10040  0.24904  Biso   1.000  O
  O5       1.0000 0.58470  0.13150  0.28523  Biso   1.000  O
  N1       1.0000 0.60920  0.23932  0.30110  Biso   1.000  N
  C1       1.0000 0.42050  0.26230  0.22805  Biso   1.000  C
  C2       1.0000 0.43990  0.20680  0.23569  Biso   1.000  C
  H1       1.0000 0.45910  0.21540  0.24710  Biso   1.000  H
  C3       1.0000 0.43110  0.13850  0.22659  Biso   1.000  C
  C4       1.0000 0.40220  0.12560  0.20996  Biso   1.000  C
  H2       1.0000 0.39570  0.07850  0.20380  Biso   1.000  H
  C5       1.0000 0.38250  0.18110  0.20212  Biso   1.000  C
  C6       1.0000 0.39200  0.24970  0.21166  Biso   1.000  C
  H3       1.0000 0.37830  0.28800  0.20660  Biso   1.000  H
  C7       1.0000 0.43920  0.34160  0.23711  Biso   1.000  C
  C8       1.0000 0.45820  0.08220  0.23442  Biso   1.000  C
  C9       1.0000 0.35720  0.17170  0.18397  Biso   1.000  C
  C10      1.0000 0.41460  0.18490  0.17105  Biso   1.000  C
  C11      1.0000 0.49830  0.20520  0.17477  Biso   1.000  C
  H4       1.0000 0.51540  0.20930  0.18630  Biso   1.000  H
  C12      1.0000 0.55400  0.21870  0.16203  Biso   1.000  C
  H5       1.0000 0.60880  0.23080  0.16480  Biso   1.000  H
  C13      1.0000 0.27570  0.15320  0.17977  Biso   1.000  C
  C14      1.0000 0.21420  0.13670  0.19257  Biso   1.000  C
  H6       1.0000 0.22890  0.13870  0.20420  Biso   1.000  H
  C15      1.0000 0.13530  0.11820  0.18851  Biso   1.000  C
  H7       1.0000 0.09580  0.10780  0.19730  Biso   1.000  H
  C16      1.0000 0.62930  0.20700  0.28612  Biso   1.000  C
  C17      1.0000 0.55530  0.22090  0.31690  Biso   1.000  C
  C18      1.0000 0.55350  0.15310  0.29635  Biso   1.000  C
  C19      1.0000 0.69480  0.29590  0.29340  Biso   1.000  C
  C20      1.0000 0.59850  0.29380  0.31418  Biso   1.000  C
  Zn2      1.0000 0.20970  0.38847  0.59879  Biso   1.000  Zn
  O6       1.0000 0.09167  0.72523  0.56245  Biso   1.000  O
  O7       1.0000 0.13537  0.68413  0.58519  Biso   1.000  O
  O8       1.0000 0.11537  0.35443  0.55888  Biso   1.000  O
  O9       1.0000 0.15567  0.43373  0.58237  Biso   1.000  O
  O10      1.0000 0.25137  0.46483  0.61856  Biso   1.000  O
  N2       1.0000 0.27587  0.57265  0.63443  Biso   1.000  N
  C21      1.0000 0.08717  0.59563  0.56138  Biso   1.000  C
  C22      1.0000 0.10657  0.54013  0.56902  Biso   1.000  C
  H8       1.0000 0.12577  0.54873  0.58043  Biso   1.000  H
  C23      1.0000 0.09777  0.47183  0.55992  Biso   1.000  C
  C24      1.0000 0.06887  0.45893  0.54329  Biso   1.000  C
  H9       1.0000 0.06237  0.41183  0.53713  Biso   1.000  H
  C25      1.0000 0.04917  0.51443  0.53545  Biso   1.000  C
  C26      1.0000 0.05867  0.58303  0.54499  Biso   1.000  C
  H10      1.0000 0.04497  0.62133  0.53993  Biso   1.000  H
  C27      1.0000 0.10587  0.67493  0.57044  Biso   1.000  C
  C28      1.0000 0.12487  0.41553  0.56775  Biso   1.000  C
  C29      1.0000 0.02387  0.50503  0.51730  Biso   1.000  C
  C30      1.0000 0.08127  0.51823  0.50438  Biso   1.000  C
  C31      1.0000 0.16497  0.53853  0.50810  Biso   1.000  C
  H11      1.0000 0.18207  0.54263  0.51963  Biso   1.000  H
  C32      1.0000 0.22067  0.55203  0.49536  Biso   1.000  C
  H12      1.0000 0.27547  0.56413  0.49813  Biso   1.000  H
  C33      1.0000 0.94237  0.48653  0.51310  Biso   1.000  C
  C34      1.0000 0.88087  0.47003  0.52590  Biso   1.000  C
  H13      1.0000 0.89557  0.47203  0.53753  Biso   1.000  H
  C35      1.0000 0.80197  0.45153  0.52184  Biso   1.000  C
  H14      1.0000 0.76247  0.44113  0.53063  Biso   1.000  H
  C36      1.0000 0.29597  0.54033  0.61945  Biso   1.000  C
  C37      1.0000 0.22197  0.55423  0.65023  Biso   1.000  C
  C38      1.0000 0.22017  0.48643  0.62968  Biso   1.000  C
  C39      1.0000 0.36147  0.62923  0.62673  Biso   1.000  C
  C40      1.0000 0.26517  0.62713  0.64751  Biso   1.000  C
  Zn3      1.0000 0.87636  0.72181  0.93213  Biso   1.000  Zn
  O11      1.0000 0.75833  0.05857  0.89579  Biso   1.000  O
  O12      1.0000 0.80203  0.01747  0.91853  Biso   1.000  O
  O13      1.0000 0.78203  0.68777  0.89222  Biso   1.000  O
  O14      1.0000 0.82233  0.76707  0.91571  Biso   1.000  O
  O15      1.0000 0.91803  0.79817  0.95190  Biso   1.000  O
  N3       1.0000 0.94253  0.90599  0.96777  Biso   1.000  N
  C41      1.0000 0.75383  0.92897  0.89472  Biso   1.000  C
  C42      1.0000 0.77323  0.87347  0.90236  Biso   1.000  C
  H15      1.0000 0.79243  0.88207  0.91377  Biso   1.000  H
  C43      1.0000 0.76443  0.80517  0.89326  Biso   1.000  C
  C44      1.0000 0.73553  0.79227  0.87663  Biso   1.000  C
  H16      1.0000 0.72903  0.74517  0.87047  Biso   1.000  H
  C45      1.0000 0.71583  0.84777  0.86879  Biso   1.000  C
  C46      1.0000 0.72533  0.91637  0.87833  Biso   1.000  C
  H17      1.0000 0.71163  0.95467  0.87327  Biso   1.000  H
  C47      1.0000 0.77253  0.00827  0.90378  Biso   1.000  C
  C48      1.0000 0.79153  0.74887  0.90109  Biso   1.000  C
  C49      1.0000 0.69053  0.83837  0.85064  Biso   1.000  C
  C50      1.0000 0.74793  0.85157  0.83772  Biso   1.000  C
  C51      1.0000 0.83163  0.87187  0.84144  Biso   1.000  C
  H18      1.0000 0.84873  0.87597  0.85297  Biso   1.000  H
  C52      1.0000 0.88733  0.88537  0.82870  Biso   1.000  C
  H19      1.0000 0.94213  0.89747  0.83147  Biso   1.000  H
  C53      1.0000 0.60903  0.81987  0.84644  Biso   1.000  C
  C54      1.0000 0.54753  0.80337  0.85924  Biso   1.000  C
  H20      1.0000 0.56223  0.80537  0.87087  Biso   1.000  H
  C55      1.0000 0.46863  0.78487  0.85518  Biso   1.000  C
  H21      1.0000 0.42913  0.77447  0.86397  Biso   1.000  H
  C56      1.0000 0.96263  0.87367  0.95279  Biso   1.000  C
  C57      1.0000 0.88863  0.88757  0.98357  Biso   1.000  C
  C58      1.0000 0.88683  0.81977  0.96302  Biso   1.000  C
  C59      1.0000 0.02813  0.96257  0.96007  Biso   1.000  C
  C60      1.0000 0.93183  0.96047  0.98085  Biso   1.000  C
  Zn4      1.0000 0.94486  0.48789  0.26546  Biso   1.000  Zn
  O16      1.0000 0.60810  0.03310  0.22912  Biso   1.000  O
  O17      1.0000 0.64920  0.11790  0.25186  Biso   1.000  O
  O18      1.0000 0.97890  0.42760  0.22555  Biso   1.000  O
  O19      1.0000 0.89960  0.38860  0.24904  Biso   1.000  O
  O20      1.0000 0.86850  0.45320  0.28523  Biso   1.000  O
  N4       1.0000 0.76068  0.36988  0.30110  Biso   1.000  N
  C61      1.0000 0.73770  0.15820  0.22805  Biso   1.000  C
  C62      1.0000 0.79320  0.23310  0.23569  Biso   1.000  C
  H22      1.0000 0.78460  0.24370  0.24710  Biso   1.000  H
  C63      1.0000 0.86150  0.29260  0.22659  Biso   1.000  C
  C64      1.0000 0.87440  0.27660  0.20996  Biso   1.000  C
  H23      1.0000 0.92150  0.31720  0.20380  Biso   1.000  H
  C65      1.0000 0.81890  0.20140  0.20212  Biso   1.000  C
  C66      1.0000 0.75030  0.14230  0.21166  Biso   1.000  C
  H24      1.0000 0.71200  0.09030  0.20660  Biso   1.000  H
  C67      1.0000 0.65840  0.09760  0.23711  Biso   1.000  C
  C68      1.0000 0.91780  0.37600  0.23442  Biso   1.000  C
  C69      1.0000 0.82830  0.18550  0.18397  Biso   1.000  C
  C70      1.0000 0.81510  0.22970  0.17105  Biso   1.000  C
  C71      1.0000 0.79480  0.29310  0.17477  Biso   1.000  C
  H25      1.0000 0.79070  0.30610  0.18630  Biso   1.000  H
  C72      1.0000 0.78130  0.33530  0.16203  Biso   1.000  C
  H26      1.0000 0.76920  0.37800  0.16480  Biso   1.000  H
  C73      1.0000 0.84680  0.12250  0.17977  Biso   1.000  C
  C74      1.0000 0.86330  0.07750  0.19257  Biso   1.000  C
  H27      1.0000 0.86130  0.09020  0.20420  Biso   1.000  H
  C75      1.0000 0.88180  0.01710  0.18851  Biso   1.000  C
  H28      1.0000 0.89220  0.98800  0.19730  Biso   1.000  H
  C76      1.0000 0.79300  0.42230  0.28612  Biso   1.000  C
  C77      1.0000 0.77910  0.33440  0.31690  Biso   1.000  C
  C78      1.0000 0.84690  0.40040  0.29635  Biso   1.000  C
  C79      1.0000 0.70410  0.39890  0.29340  Biso   1.000  C
  C80      1.0000 0.70620  0.30470  0.31418  Biso   1.000  C
  Zn5      1.0000 0.61153  0.82122  0.59879  Biso   1.000  Zn
  O21      1.0000 0.27477  0.36643  0.56245  Biso   1.000  O
  O22      1.0000 0.31587  0.45123  0.58519  Biso   1.000  O
  O23      1.0000 0.64557  0.76093  0.55888  Biso   1.000  O
  O24      1.0000 0.56627  0.72193  0.58237  Biso   1.000  O
  O25      1.0000 0.53517  0.78653  0.61856  Biso   1.000  O
  N5       1.0000 0.42735  0.70321  0.63443  Biso   1.000  N
  C81      1.0000 0.40437  0.49153  0.56138  Biso   1.000  C
  C82      1.0000 0.45987  0.56643  0.56902  Biso   1.000  C
  H29      1.0000 0.45127  0.57703  0.58043  Biso   1.000  H
  C83      1.0000 0.52817  0.62593  0.55992  Biso   1.000  C
  C84      1.0000 0.54107  0.60993  0.54329  Biso   1.000  C
  H30      1.0000 0.58817  0.65053  0.53713  Biso   1.000  H
  C85      1.0000 0.48557  0.53473  0.53545  Biso   1.000  C
  C86      1.0000 0.41697  0.47563  0.54499  Biso   1.000  C
  H31      1.0000 0.37867  0.42363  0.53993  Biso   1.000  H
  C87      1.0000 0.32507  0.43093  0.57044  Biso   1.000  C
  C88      1.0000 0.58447  0.70933  0.56775  Biso   1.000  C
  C89      1.0000 0.49497  0.51883  0.51730  Biso   1.000  C
  C90      1.0000 0.48177  0.56303  0.50438  Biso   1.000  C
  C91      1.0000 0.46147  0.62643  0.50810  Biso   1.000  C
  H32      1.0000 0.45737  0.63943  0.51963  Biso   1.000  H
  C92      1.0000 0.44797  0.66863  0.49536  Biso   1.000  C
  H33      1.0000 0.43587  0.71133  0.49813  Biso   1.000  H
  C93      1.0000 0.51347  0.45583  0.51310  Biso   1.000  C
  C94      1.0000 0.52997  0.41083  0.52590  Biso   1.000  C
  H34      1.0000 0.52797  0.42353  0.53753  Biso   1.000  H
  C95      1.0000 0.54847  0.35043  0.52184  Biso   1.000  C
  H35      1.0000 0.55887  0.32133  0.53063  Biso   1.000  H
  C96      1.0000 0.45967  0.75563  0.61945  Biso   1.000  C
  C97      1.0000 0.44577  0.66773  0.65023  Biso   1.000  C
  C98      1.0000 0.51357  0.73373  0.62968  Biso   1.000  C
  C99      1.0000 0.37077  0.73223  0.62673  Biso   1.000  C
  C100     1.0000 0.37287  0.63803  0.64751  Biso   1.000  C
  Zn6      1.0000 0.27819  0.15456  0.93213  Biso   1.000  Zn
  O26      1.0000 0.94143  0.69977  0.89579  Biso   1.000  O
  O27      1.0000 0.98253  0.78457  0.91853  Biso   1.000  O
  O28      1.0000 0.31223  0.09427  0.89222  Biso   1.000  O
  O29      1.0000 0.23293  0.05527  0.91571  Biso   1.000  O
  O30      1.0000 0.20183  0.11987  0.95190  Biso   1.000  O
  N6       1.0000 0.09401  0.03655  0.96777  Biso   1.000  N
  C101     1.0000 0.07103  0.82487  0.89472  Biso   1.000  C
  C102     1.0000 0.12653  0.89977  0.90236  Biso   1.000  C
  H36      1.0000 0.11793  0.91037  0.91377  Biso   1.000  H
  C103     1.0000 0.19483  0.95927  0.89326  Biso   1.000  C
  C104     1.0000 0.20773  0.94327  0.87663  Biso   1.000  C
  H37      1.0000 0.25483  0.98387  0.87047  Biso   1.000  H
  C105     1.0000 0.15223  0.86807  0.86879  Biso   1.000  C
  C106     1.0000 0.08363  0.80897  0.87833  Biso   1.000  C
  H38      1.0000 0.04533  0.75697  0.87327  Biso   1.000  H
  C107     1.0000 0.99173  0.76427  0.90378  Biso   1.000  C
  C108     1.0000 0.25113  0.04267  0.90109  Biso   1.000  C
  C109     1.0000 0.16163  0.85217  0.85064  Biso   1.000  C
  C110     1.0000 0.14843  0.89637  0.83772  Biso   1.000  C
  C111     1.0000 0.12813  0.95977  0.84144  Biso   1.000  C
  H39      1.0000 0.12403  0.97277  0.85297  Biso   1.000  H
  C112     1.0000 0.11463  0.00197  0.82870  Biso   1.000  C
  H40      1.0000 0.10253  0.04467  0.83147  Biso   1.000  H
  C113     1.0000 0.18013  0.78917  0.84644  Biso   1.000  C
  C114     1.0000 0.19663  0.74417  0.85924  Biso   1.000  C
  H41      1.0000 0.19463  0.75687  0.87087  Biso   1.000  H
  C115     1.0000 0.21513  0.68377  0.85518  Biso   1.000  C
  H42      1.0000 0.22553  0.65467  0.86397  Biso   1.000  H
  C116     1.0000 0.12633  0.08897  0.95279  Biso   1.000  C
  C117     1.0000 0.11243  0.00107  0.98357  Biso   1.000  C
  C118     1.0000 0.18023  0.06707  0.96302  Biso   1.000  C
  C119     1.0000 0.03743  0.06557  0.96007  Biso   1.000  C
  C120     1.0000 0.03953  0.97137  0.98085  Biso   1.000  C
  Zn7      1.0000 0.51211  0.45697  0.26546  Biso   1.000  Zn
  O31      1.0000 0.96690  0.57500  0.22912  Biso   1.000  O
  O32      1.0000 0.88210  0.53130  0.25186  Biso   1.000  O
  O33      1.0000 0.57240  0.55130  0.22555  Biso   1.000  O
  O34      1.0000 0.61140  0.51100  0.24904  Biso   1.000  O
  O35      1.0000 0.54680  0.41530  0.28523  Biso   1.000  O
  N7       1.0000 0.63012  0.39080  0.30110  Biso   1.000  N
  C121     1.0000 0.84180  0.57950  0.22805  Biso   1.000  C
  C122     1.0000 0.76690  0.56010  0.23569  Biso   1.000  C
  H43      1.0000 0.75630  0.54090  0.24710  Biso   1.000  H
  C123     1.0000 0.70740  0.56890  0.22659  Biso   1.000  C
  C124     1.0000 0.72340  0.59780  0.20996  Biso   1.000  C
  H44      1.0000 0.68280  0.60430  0.20380  Biso   1.000  H
  C125     1.0000 0.79860  0.61750  0.20212  Biso   1.000  C
  C126     1.0000 0.85770  0.60800  0.21166  Biso   1.000  C
  H45      1.0000 0.90970  0.62170  0.20660  Biso   1.000  H
  C127     1.0000 0.90240  0.56080  0.23711  Biso   1.000  C
  C128     1.0000 0.62400  0.54180  0.23442  Biso   1.000  C
  C129     1.0000 0.81450  0.64280  0.18397  Biso   1.000  C
  C130     1.0000 0.77030  0.58540  0.17105  Biso   1.000  C
  C131     1.0000 0.70690  0.50170  0.17477  Biso   1.000  C
  H46      1.0000 0.69390  0.48460  0.18630  Biso   1.000  H
  C132     1.0000 0.66470  0.44600  0.16203  Biso   1.000  C
  H47      1.0000 0.62200  0.39120  0.16480  Biso   1.000  H
  C133     1.0000 0.87750  0.72430  0.17977  Biso   1.000  C
  C134     1.0000 0.92250  0.78580  0.19257  Biso   1.000  C
  H48      1.0000 0.90980  0.77110  0.20420  Biso   1.000  H
  C135     1.0000 0.98290  0.86470  0.18851  Biso   1.000  C
  H49      1.0000 0.01200  0.90420  0.19730  Biso   1.000  H
  C136     1.0000 0.57770  0.37070  0.28612  Biso   1.000  C
  C137     1.0000 0.66560  0.44470  0.31690  Biso   1.000  C
  C138     1.0000 0.59960  0.44650  0.29635  Biso   1.000  C
  C139     1.0000 0.60110  0.30520  0.29340  Biso   1.000  C
  C140     1.0000 0.69530  0.40150  0.31418  Biso   1.000  C
  Zn8      1.0000 0.17878  0.79030  0.59879  Biso   1.000  Zn
  O36      1.0000 0.63357  0.90833  0.56245  Biso   1.000  O
  O37      1.0000 0.54877  0.86463  0.58519  Biso   1.000  O
  O38      1.0000 0.23907  0.88463  0.55888  Biso   1.000  O
  O39      1.0000 0.27807  0.84433  0.58237  Biso   1.000  O
  O40      1.0000 0.21347  0.74863  0.61856  Biso   1.000  O
  N8       1.0000 0.29679  0.72413  0.63443  Biso   1.000  N
  C141     1.0000 0.50847  0.91283  0.56138  Biso   1.000  C
  C142     1.0000 0.43357  0.89343  0.56902  Biso   1.000  C
  H50      1.0000 0.42297  0.87423  0.58043  Biso   1.000  H
  C143     1.0000 0.37407  0.90223  0.55992  Biso   1.000  C
  C144     1.0000 0.39007  0.93113  0.54329  Biso   1.000  C
  H51      1.0000 0.34947  0.93763  0.53713  Biso   1.000  H
  C145     1.0000 0.46527  0.95083  0.53545  Biso   1.000  C
  C146     1.0000 0.52437  0.94133  0.54499  Biso   1.000  C
  H52      1.0000 0.57637  0.95503  0.53993  Biso   1.000  H
  C147     1.0000 0.56907  0.89413  0.57044  Biso   1.000  C
  C148     1.0000 0.29067  0.87513  0.56775  Biso   1.000  C
  C149     1.0000 0.48117  0.97613  0.51730  Biso   1.000  C
  C150     1.0000 0.43697  0.91873  0.50438  Biso   1.000  C
  C151     1.0000 0.37357  0.83503  0.50810  Biso   1.000  C
  H53      1.0000 0.36057  0.81793  0.51963  Biso   1.000  H
  C152     1.0000 0.33137  0.77933  0.49536  Biso   1.000  C
  H54      1.0000 0.28867  0.72453  0.49813  Biso   1.000  H
  C153     1.0000 0.54417  0.05763  0.51310  Biso   1.000  C
  C154     1.0000 0.58917  0.11913  0.52590  Biso   1.000  C
  H55      1.0000 0.57647  0.10443  0.53753  Biso   1.000  H
  C155     1.0000 0.64957  0.19803  0.52184  Biso   1.000  C
  H56      1.0000 0.67867  0.23753  0.53063  Biso   1.000  H
  C156     1.0000 0.24437  0.70403  0.61945  Biso   1.000  C
  C157     1.0000 0.33227  0.77803  0.65023  Biso   1.000  C
  C158     1.0000 0.26627  0.77983  0.62968  Biso   1.000  C
  C159     1.0000 0.26777  0.63853  0.62673  Biso   1.000  C
  C160     1.0000 0.36197  0.73483  0.64751  Biso   1.000  C
  Zn9      1.0000 0.84544  0.12364  0.93213  Biso   1.000  Zn
  O41      1.0000 0.30023  0.24167  0.89579  Biso   1.000  O
  O42      1.0000 0.21543  0.19797  0.91853  Biso   1.000  O
  O43      1.0000 0.90573  0.21797  0.89222  Biso   1.000  O
  O44      1.0000 0.94473  0.17767  0.91571  Biso   1.000  O
  O45      1.0000 0.88013  0.08197  0.95190  Biso   1.000  O
  N9       1.0000 0.96345  0.05747  0.96777  Biso   1.000  N
  C161     1.0000 0.17513  0.24617  0.89472  Biso   1.000  C
  C162     1.0000 0.10023  0.22677  0.90236  Biso   1.000  C
  H57      1.0000 0.08963  0.20757  0.91377  Biso   1.000  H
  C163     1.0000 0.04073  0.23557  0.89326  Biso   1.000  C
  C164     1.0000 0.05673  0.26447  0.87663  Biso   1.000  C
  H58      1.0000 0.01613  0.27097  0.87047  Biso   1.000  H
  C165     1.0000 0.13193  0.28417  0.86879  Biso   1.000  C
  C166     1.0000 0.19103  0.27467  0.87833  Biso   1.000  C
  H59      1.0000 0.24303  0.28837  0.87327  Biso   1.000  H
  C167     1.0000 0.23573  0.22747  0.90378  Biso   1.000  C
  C168     1.0000 0.95733  0.20847  0.90109  Biso   1.000  C
  C169     1.0000 0.14783  0.30947  0.85064  Biso   1.000  C
  C170     1.0000 0.10363  0.25207  0.83772  Biso   1.000  C
  C171     1.0000 0.04023  0.16837  0.84144  Biso   1.000  C
  H60      1.0000 0.02723  0.15127  0.85297  Biso   1.000  H
  C172     1.0000 0.99803  0.11267  0.82870  Biso   1.000  C
  H61      1.0000 0.95533  0.05787  0.83147  Biso   1.000  H
  C173     1.0000 0.21083  0.39097  0.84644  Biso   1.000  C
  C174     1.0000 0.25583  0.45247  0.85924  Biso   1.000  C
  H62      1.0000 0.24313  0.43777  0.87087  Biso   1.000  H
  C175     1.0000 0.31623  0.53137  0.85518  Biso   1.000  C
  H63      1.0000 0.34533  0.57087  0.86397  Biso   1.000  H
  C176     1.0000 0.91103  0.03737  0.95279  Biso   1.000  C
  C177     1.0000 0.99893  0.11137  0.98357  Biso   1.000  C
  C178     1.0000 0.93293  0.11317  0.96302  Biso   1.000  C
  C179     1.0000 0.93443  0.97187  0.96007  Biso   1.000  C
  C180     1.0000 0.02863  0.06817  0.98085  Biso   1.000  C
  Zn10     1.0000 0.05514  0.54303  0.23454  Biso   1.000  Zn
  O46      1.0000 0.39190  0.42500  0.27088  Biso   1.000  O
  O47      1.0000 0.35080  0.46870  0.24814  Biso   1.000  O
  O48      1.0000 0.02110  0.44870  0.27445  Biso   1.000  O
  O49      1.0000 0.10040  0.48900  0.25096  Biso   1.000  O
  O50      1.0000 0.13150  0.58470  0.21477  Biso   1.000  O
  N10      1.0000 0.23932  0.60920  0.19890  Biso   1.000  N
  C181     1.0000 0.26230  0.42050  0.27195  Biso   1.000  C
  C182     1.0000 0.20680  0.43990  0.26431  Biso   1.000  C
  H64      1.0000 0.21540  0.45910  0.25290  Biso   1.000  H
  C183     1.0000 0.13850  0.43110  0.27341  Biso   1.000  C
  C184     1.0000 0.12560  0.40220  0.29004  Biso   1.000  C
  H65      1.0000 0.07850  0.39570  0.29620  Biso   1.000  H
  C185     1.0000 0.18110  0.38250  0.29788  Biso   1.000  C
  C186     1.0000 0.24970  0.39200  0.28834  Biso   1.000  C
  H66      1.0000 0.28800  0.37830  0.29340  Biso   1.000  H
  C187     1.0000 0.34160  0.43920  0.26289  Biso   1.000  C
  C188     1.0000 0.08220  0.45820  0.26558  Biso   1.000  C
  C189     1.0000 0.17170  0.35720  0.31603  Biso   1.000  C
  C190     1.0000 0.18490  0.41460  0.32895  Biso   1.000  C
  C191     1.0000 0.20520  0.49830  0.32523  Biso   1.000  C
  H67      1.0000 0.20930  0.51540  0.31370  Biso   1.000  H
  C192     1.0000 0.21870  0.55400  0.33797  Biso   1.000  C
  H68      1.0000 0.23080  0.60880  0.33520  Biso   1.000  H
  C193     1.0000 0.15320  0.27570  0.32023  Biso   1.000  C
  C194     1.0000 0.13670  0.21420  0.30743  Biso   1.000  C
  H69      1.0000 0.13870  0.22890  0.29580  Biso   1.000  H
  C195     1.0000 0.11820  0.13530  0.31149  Biso   1.000  C
  H70      1.0000 0.10780  0.09580  0.30270  Biso   1.000  H
  C196     1.0000 0.20700  0.62930  0.21388  Biso   1.000  C
  C197     1.0000 0.22090  0.55530  0.18310  Biso   1.000  C
  C198     1.0000 0.15310  0.55350  0.20365  Biso   1.000  C
  C199     1.0000 0.29590  0.69480  0.20660  Biso   1.000  C
  C200     1.0000 0.29380  0.59850  0.18582  Biso   1.000  C
  Zn11     1.0000 0.72181  0.87636  0.56787  Biso   1.000  Zn
  O51      1.0000 0.05857  0.75833  0.60421  Biso   1.000  O
  O52      1.0000 0.01747  0.80203  0.58147  Biso   1.000  O
  O53      1.0000 0.68777  0.78203  0.60778  Biso   1.000  O
  O54      1.0000 0.76707  0.82233  0.58429  Biso   1.000  O
  O55      1.0000 0.79817  0.91803  0.54810  Biso   1.000  O
  N11      1.0000 0.90599  0.94253  0.53223  Biso   1.000  N
  C201     1.0000 0.92897  0.75383  0.60528  Biso   1.000  C
  C202     1.0000 0.87347  0.77323  0.59764  Biso   1.000  C
  H71      1.0000 0.88207  0.79243  0.58623  Biso   1.000  H
  C203     1.0000 0.80517  0.76443  0.60674  Biso   1.000  C
  C204     1.0000 0.79227  0.73553  0.62337  Biso   1.000  C
  H72      1.0000 0.74517  0.72903  0.62953  Biso   1.000  H
  C205     1.0000 0.84777  0.71583  0.63121  Biso   1.000  C
  C206     1.0000 0.91637  0.72533  0.62167  Biso   1.000  C
  H73      1.0000 0.95467  0.71163  0.62673  Biso   1.000  H
  C207     1.0000 0.00827  0.77253  0.59622  Biso   1.000  C
  C208     1.0000 0.74887  0.79153  0.59891  Biso   1.000  C
  C209     1.0000 0.83837  0.69053  0.64936  Biso   1.000  C
  C210     1.0000 0.85157  0.74793  0.66228  Biso   1.000  C
  C211     1.0000 0.87187  0.83163  0.65856  Biso   1.000  C
  H74      1.0000 0.87597  0.84873  0.64703  Biso   1.000  H
  C212     1.0000 0.88537  0.88733  0.67130  Biso   1.000  C
  H75      1.0000 0.89747  0.94213  0.66853  Biso   1.000  H
  C213     1.0000 0.81987  0.60903  0.65356  Biso   1.000  C
  C214     1.0000 0.80337  0.54753  0.64076  Biso   1.000  C
  H76      1.0000 0.80537  0.56223  0.62913  Biso   1.000  H
  C215     1.0000 0.78487  0.46863  0.64482  Biso   1.000  C
  H77      1.0000 0.77447  0.42913  0.63603  Biso   1.000  H
  C216     1.0000 0.87367  0.96263  0.54721  Biso   1.000  C
  C217     1.0000 0.88757  0.88863  0.51643  Biso   1.000  C
  C218     1.0000 0.81977  0.88683  0.53698  Biso   1.000  C
  C219     1.0000 0.96257  0.02813  0.53993  Biso   1.000  C
  C220     1.0000 0.96047  0.93183  0.51915  Biso   1.000  C
  Zn12     1.0000 0.38847  0.20970  0.90121  Biso   1.000  Zn
  O56      1.0000 0.72523  0.09167  0.93755  Biso   1.000  O
  O57      1.0000 0.68413  0.13537  0.91481  Biso   1.000  O
  O58      1.0000 0.35443  0.11537  0.94112  Biso   1.000  O
  O59      1.0000 0.43373  0.15567  0.91763  Biso   1.000  O
  O60      1.0000 0.46483  0.25137  0.88144  Biso   1.000  O
  N12      1.0000 0.57265  0.27587  0.86557  Biso   1.000  N
  C221     1.0000 0.59563  0.08717  0.93862  Biso   1.000  C
  C222     1.0000 0.54013  0.10657  0.93098  Biso   1.000  C
  H78      1.0000 0.54873  0.12577  0.91957  Biso   1.000  H
  C223     1.0000 0.47183  0.09777  0.94008  Biso   1.000  C
  C224     1.0000 0.45893  0.06887  0.95671  Biso   1.000  C
  H79      1.0000 0.41183  0.06237  0.96287  Biso   1.000  H
  C225     1.0000 0.51443  0.04917  0.96455  Biso   1.000  C
  C226     1.0000 0.58303  0.05867  0.95501  Biso   1.000  C
  H80      1.0000 0.62133  0.04497  0.96007  Biso   1.000  H
  C227     1.0000 0.67493  0.10587  0.92956  Biso   1.000  C
  C228     1.0000 0.41553  0.12487  0.93225  Biso   1.000  C
  C229     1.0000 0.50503  0.02387  0.98270  Biso   1.000  C
  C230     1.0000 0.51823  0.08127  0.99562  Biso   1.000  C
  C231     1.0000 0.53853  0.16497  0.99190  Biso   1.000  C
  H81      1.0000 0.54263  0.18207  0.98037  Biso   1.000  H
  C232     1.0000 0.55203  0.22067  0.00464  Biso   1.000  C
  H82      1.0000 0.56413  0.27547  0.00187  Biso   1.000  H
  C233     1.0000 0.48653  0.94237  0.98690  Biso   1.000  C
  C234     1.0000 0.47003  0.88087  0.97410  Biso   1.000  C
  H83      1.0000 0.47203  0.89557  0.96247  Biso   1.000  H
  C235     1.0000 0.45153  0.80197  0.97816  Biso   1.000  C
  H84      1.0000 0.44113  0.76247  0.96937  Biso   1.000  H
  C236     1.0000 0.54033  0.29597  0.88055  Biso   1.000  C
  C237     1.0000 0.55423  0.22197  0.84977  Biso   1.000  C
  C238     1.0000 0.48643  0.22017  0.87032  Biso   1.000  C
  C239     1.0000 0.62923  0.36147  0.87327  Biso   1.000  C
  C240     1.0000 0.62713  0.26517  0.85249  Biso   1.000  C
  Zn13     1.0000 0.48789  0.94486  0.23454  Biso   1.000  Zn
  O61      1.0000 0.03310  0.60810  0.27088  Biso   1.000  O
  O62      1.0000 0.11790  0.64920  0.24814  Biso   1.000  O
  O63      1.0000 0.42760  0.97890  0.27445  Biso   1.000  O
  O64      1.0000 0.38860  0.89960  0.25096  Biso   1.000  O
  O65      1.0000 0.45320  0.86850  0.21477  Biso   1.000  O
  N13      1.0000 0.36988  0.76068  0.19890  Biso   1.000  N
  C241     1.0000 0.15820  0.73770  0.27195  Biso   1.000  C
  C242     1.0000 0.23310  0.79320  0.26431  Biso   1.000  C
  H85      1.0000 0.24370  0.78460  0.25290  Biso   1.000  H
  C243     1.0000 0.29260  0.86150  0.27341  Biso   1.000  C
  C244     1.0000 0.27660  0.87440  0.29004  Biso   1.000  C
  H86      1.0000 0.31720  0.92150  0.29620  Biso   1.000  H
  C245     1.0000 0.20140  0.81890  0.29788  Biso   1.000  C
  C246     1.0000 0.14230  0.75030  0.28834  Biso   1.000  C
  H87      1.0000 0.09030  0.71200  0.29340  Biso   1.000  H
  C247     1.0000 0.09760  0.65840  0.26289  Biso   1.000  C
  C248     1.0000 0.37600  0.91780  0.26558  Biso   1.000  C
  C249     1.0000 0.18550  0.82830  0.31603  Biso   1.000  C
  C250     1.0000 0.22970  0.81510  0.32895  Biso   1.000  C
  C251     1.0000 0.29310  0.79480  0.32523  Biso   1.000  C
  H88      1.0000 0.30610  0.79070  0.31370  Biso   1.000  H
  C252     1.0000 0.33530  0.78130  0.33797  Biso   1.000  C
  H89      1.0000 0.37800  0.76920  0.33520  Biso   1.000  H
  C253     1.0000 0.12250  0.84680  0.32023  Biso   1.000  C
  C254     1.0000 0.07750  0.86330  0.30743  Biso   1.000  C
  H90      1.0000 0.09020  0.86130  0.29580  Biso   1.000  H
  C255     1.0000 0.01710  0.88180  0.31149  Biso   1.000  C
  H91      1.0000 0.98800  0.89220  0.30270  Biso   1.000  H
  C256     1.0000 0.42230  0.79300  0.21388  Biso   1.000  C
  C257     1.0000 0.33440  0.77910  0.18310  Biso   1.000  C
  C258     1.0000 0.40040  0.84690  0.20365  Biso   1.000  C
  C259     1.0000 0.39890  0.70410  0.20660  Biso   1.000  C
  C260     1.0000 0.30470  0.70620  0.18582  Biso   1.000  C
  Zn14     1.0000 0.15456  0.27819  0.56787  Biso   1.000  Zn
  O66      1.0000 0.69977  0.94143  0.60421  Biso   1.000  O
  O67      1.0000 0.78457  0.98253  0.58147  Biso   1.000  O
  O68      1.0000 0.09427  0.31223  0.60778  Biso   1.000  O
  O69      1.0000 0.05527  0.23293  0.58429  Biso   1.000  O
  O70      1.0000 0.11987  0.20183  0.54810  Biso   1.000  O
  N14      1.0000 0.03655  0.09401  0.53223  Biso   1.000  N
  C261     1.0000 0.82487  0.07103  0.60528  Biso   1.000  C
  C262     1.0000 0.89977  0.12653  0.59764  Biso   1.000  C
  H92      1.0000 0.91037  0.11793  0.58623  Biso   1.000  H
  C263     1.0000 0.95927  0.19483  0.60674  Biso   1.000  C
  C264     1.0000 0.94327  0.20773  0.62337  Biso   1.000  C
  H93      1.0000 0.98387  0.25483  0.62953  Biso   1.000  H
  C265     1.0000 0.86807  0.15223  0.63121  Biso   1.000  C
  C266     1.0000 0.80897  0.08363  0.62167  Biso   1.000  C
  H94      1.0000 0.75697  0.04533  0.62673  Biso   1.000  H
  C267     1.0000 0.76427  0.99173  0.59622  Biso   1.000  C
  C268     1.0000 0.04267  0.25113  0.59891  Biso   1.000  C
  C269     1.0000 0.85217  0.16163  0.64936  Biso   1.000  C
  C270     1.0000 0.89637  0.14843  0.66228  Biso   1.000  C
  C271     1.0000 0.95977  0.12813  0.65856  Biso   1.000  C
  H95      1.0000 0.97277  0.12403  0.64703  Biso   1.000  H
  C272     1.0000 0.00197  0.11463  0.67130  Biso   1.000  C
  H96      1.0000 0.04467  0.10253  0.66853  Biso   1.000  H
  C273     1.0000 0.78917  0.18013  0.65356  Biso   1.000  C
  C274     1.0000 0.74417  0.19663  0.64076  Biso   1.000  C
  H97      1.0000 0.75687  0.19463  0.62913  Biso   1.000  H
  C275     1.0000 0.68377  0.21513  0.64482  Biso   1.000  C
  H98      1.0000 0.65467  0.22553  0.63603  Biso   1.000  H
  C276     1.0000 0.08897  0.12633  0.54721  Biso   1.000  C
  C277     1.0000 0.00107  0.11243  0.51643  Biso   1.000  C
  C278     1.0000 0.06707  0.18023  0.53698  Biso   1.000  C
  C279     1.0000 0.06557  0.03743  0.53993  Biso   1.000  C
  C280     1.0000 0.97137  0.03953  0.51915  Biso   1.000  C
  Zn15     1.0000 0.82122  0.61153  0.90121  Biso   1.000  Zn
  O71      1.0000 0.36643  0.27477  0.93755  Biso   1.000  O
  O72      1.0000 0.45123  0.31587  0.91481  Biso   1.000  O
  O73      1.0000 0.76093  0.64557  0.94112  Biso   1.000  O
  O74      1.0000 0.72193  0.56627  0.91763  Biso   1.000  O
  O75      1.0000 0.78653  0.53517  0.88144  Biso   1.000  O
  N15      1.0000 0.70321  0.42735  0.86557  Biso   1.000  N
  C281     1.0000 0.49153  0.40437  0.93862  Biso   1.000  C
  C282     1.0000 0.56643  0.45987  0.93098  Biso   1.000  C
  H99      1.0000 0.57703  0.45127  0.91957  Biso   1.000  H
  C283     1.0000 0.62593  0.52817  0.94008  Biso   1.000  C
  C284     1.0000 0.60993  0.54107  0.95671  Biso   1.000  C
  H100     1.0000 0.65053  0.58817  0.96287  Biso   1.000  H
  C285     1.0000 0.53473  0.48557  0.96455  Biso   1.000  C
  C286     1.0000 0.47563  0.41697  0.95501  Biso   1.000  C
  H101     1.0000 0.42363  0.37867  0.96007  Biso   1.000  H
  C287     1.0000 0.43093  0.32507  0.92956  Biso   1.000  C
  C288     1.0000 0.70933  0.58447  0.93225  Biso   1.000  C
  C289     1.0000 0.51883  0.49497  0.98270  Biso   1.000  C
  C290     1.0000 0.56303  0.48177  0.99562  Biso   1.000  C
  C291     1.0000 0.62643  0.46147  0.99190  Biso   1.000  C
  H102     1.0000 0.63943  0.45737  0.98037  Biso   1.000  H
  C292     1.0000 0.66863  0.44797  0.00464  Biso   1.000  C
  H103     1.0000 0.71133  0.43587  0.00187  Biso   1.000  H
  C293     1.0000 0.45583  0.51347  0.98690  Biso   1.000  C
  C294     1.0000 0.41083  0.52997  0.97410  Biso   1.000  C
  H104     1.0000 0.42353  0.52797  0.96247  Biso   1.000  H
  C295     1.0000 0.35043  0.54847  0.97816  Biso   1.000  C
  H105     1.0000 0.32133  0.55887  0.96937  Biso   1.000  H
  C296     1.0000 0.75563  0.45967  0.88055  Biso   1.000  C
  C297     1.0000 0.66773  0.44577  0.84977  Biso   1.000  C
  C298     1.0000 0.73373  0.51357  0.87032  Biso   1.000  C
  C299     1.0000 0.73223  0.37077  0.87327  Biso   1.000  C
  C300     1.0000 0.63803  0.37287  0.85249  Biso   1.000  C
  Zn16     1.0000 0.45697  0.51211  0.23454  Biso   1.000  Zn
  O76      1.0000 0.57500  0.96690  0.27088  Biso   1.000  O
  O77      1.0000 0.53130  0.88210  0.24814  Biso   1.000  O
  O78      1.0000 0.55130  0.57240  0.27445  Biso   1.000  O
  O79      1.0000 0.51100  0.61140  0.25096  Biso   1.000  O
  O80      1.0000 0.41530  0.54680  0.21477  Biso   1.000  O
  N16      1.0000 0.39080  0.63012  0.19890  Biso   1.000  N
  C301     1.0000 0.57950  0.84180  0.27195  Biso   1.000  C
  C302     1.0000 0.56010  0.76690  0.26431  Biso   1.000  C
  H106     1.0000 0.54090  0.75630  0.25290  Biso   1.000  H
  C303     1.0000 0.56890  0.70740  0.27341  Biso   1.000  C
  C304     1.0000 0.59780  0.72340  0.29004  Biso   1.000  C
  H107     1.0000 0.60430  0.68280  0.29620  Biso   1.000  H
  C305     1.0000 0.61750  0.79860  0.29788  Biso   1.000  C
  C306     1.0000 0.60800  0.85770  0.28834  Biso   1.000  C
  H108     1.0000 0.62170  0.90970  0.29340  Biso   1.000  H
  C307     1.0000 0.56080  0.90240  0.26289  Biso   1.000  C
  C308     1.0000 0.54180  0.62400  0.26558  Biso   1.000  C
  C309     1.0000 0.64280  0.81450  0.31603  Biso   1.000  C
  C310     1.0000 0.58540  0.77030  0.32895  Biso   1.000  C
  C311     1.0000 0.50170  0.70690  0.32523  Biso   1.000  C
  H109     1.0000 0.48460  0.69390  0.31370  Biso   1.000  H
  C312     1.0000 0.44600  0.66470  0.33797  Biso   1.000  C
  H110     1.0000 0.39120  0.62200  0.33520  Biso   1.000  H
  C313     1.0000 0.72430  0.87750  0.32023  Biso   1.000  C
  C314     1.0000 0.78580  0.92250  0.30743  Biso   1.000  C
  H111     1.0000 0.77110  0.90980  0.29580  Biso   1.000  H
  C315     1.0000 0.86470  0.98290  0.31149  Biso   1.000  C
  H112     1.0000 0.90420  0.01200  0.30270  Biso   1.000  H
  C316     1.0000 0.37070  0.57770  0.21388  Biso   1.000  C
  C317     1.0000 0.44470  0.66560  0.18310  Biso   1.000  C
  C318     1.0000 0.44650  0.59960  0.20365  Biso   1.000  C
  C319     1.0000 0.30520  0.60110  0.20660  Biso   1.000  C
  C320     1.0000 0.40150  0.69530  0.18582  Biso   1.000  C
  Zn17     1.0000 0.12364  0.84544  0.56787  Biso   1.000  Zn
  O81      1.0000 0.24167  0.30023  0.60421  Biso   1.000  O
  O82      1.0000 0.19797  0.21543  0.58147  Biso   1.000  O
  O83      1.0000 0.21797  0.90573  0.60778  Biso   1.000  O
  O84      1.0000 0.17767  0.94473  0.58429  Biso   1.000  O
  O85      1.0000 0.08197  0.88013  0.54810  Biso   1.000  O
  N17      1.0000 0.05747  0.96345  0.53223  Biso   1.000  N
  C321     1.0000 0.24617  0.17513  0.60528  Biso   1.000  C
  C322     1.0000 0.22677  0.10023  0.59764  Biso   1.000  C
  H113     1.0000 0.20757  0.08963  0.58623  Biso   1.000  H
  C323     1.0000 0.23557  0.04073  0.60674  Biso   1.000  C
  C324     1.0000 0.26447  0.05673  0.62337  Biso   1.000  C
  H114     1.0000 0.27097  0.01613  0.62953  Biso   1.000  H
  C325     1.0000 0.28417  0.13193  0.63121  Biso   1.000  C
  C326     1.0000 0.27467  0.19103  0.62167  Biso   1.000  C
  H115     1.0000 0.28837  0.24303  0.62673  Biso   1.000  H
  C327     1.0000 0.22747  0.23573  0.59622  Biso   1.000  C
  C328     1.0000 0.20847  0.95733  0.59891  Biso   1.000  C
  C329     1.0000 0.30947  0.14783  0.64936  Biso   1.000  C
  C330     1.0000 0.25207  0.10363  0.66228  Biso   1.000  C
  C331     1.0000 0.16837  0.04023  0.65856  Biso   1.000  C
  H116     1.0000 0.15127  0.02723  0.64703  Biso   1.000  H
  C332     1.0000 0.11267  0.99803  0.67130  Biso   1.000  C
  H117     1.0000 0.05787  0.95533  0.66853  Biso   1.000  H
  C333     1.0000 0.39097  0.21083  0.65356  Biso   1.000  C
  C334     1.0000 0.45247  0.25583  0.64076  Biso   1.000  C
  H118     1.0000 0.43777  0.24313  0.62913  Biso   1.000  H
  C335     1.0000 0.53137  0.31623  0.64482  Biso   1.000  C
  H119     1.0000 0.57087  0.34533  0.63603  Biso   1.000  H
  C336     1.0000 0.03737  0.91103  0.54721  Biso   1.000  C
  C337     1.0000 0.11137  0.99893  0.51643  Biso   1.000  C
  C338     1.0000 0.11317  0.93293  0.53698  Biso   1.000  C
  C339     1.0000 0.97187  0.93443  0.53993  Biso   1.000  C
  C340     1.0000 0.06817  0.02863  0.51915  Biso   1.000  C
  Zn18     1.0000 0.79030  0.17878  0.90121  Biso   1.000  Zn
  O86      1.0000 0.90833  0.63357  0.93755  Biso   1.000  O
  O87      1.0000 0.86463  0.54877  0.91481  Biso   1.000  O
  O88      1.0000 0.88463  0.23907  0.94112  Biso   1.000  O
  O89      1.0000 0.84433  0.27807  0.91763  Biso   1.000  O
  O90      1.0000 0.74863  0.21347  0.88144  Biso   1.000  O
  N18      1.0000 0.72413  0.29679  0.86557  Biso   1.000  N
  C341     1.0000 0.91283  0.50847  0.93862  Biso   1.000  C
  C342     1.0000 0.89343  0.43357  0.93098  Biso   1.000  C
  H120     1.0000 0.87423  0.42297  0.91957  Biso   1.000  H
  C343     1.0000 0.90223  0.37407  0.94008  Biso   1.000  C
  C344     1.0000 0.93113  0.39007  0.95671  Biso   1.000  C
  H121     1.0000 0.93763  0.34947  0.96287  Biso   1.000  H
  C345     1.0000 0.95083  0.46527  0.96455  Biso   1.000  C
  C346     1.0000 0.94133  0.52437  0.95501  Biso   1.000  C
  H122     1.0000 0.95503  0.57637  0.96007  Biso   1.000  H
  C347     1.0000 0.89413  0.56907  0.92956  Biso   1.000  C
  C348     1.0000 0.87513  0.29067  0.93225  Biso   1.000  C
  C349     1.0000 0.97613  0.48117  0.98270  Biso   1.000  C
  C350     1.0000 0.91873  0.43697  0.99562  Biso   1.000  C
  C351     1.0000 0.83503  0.37357  0.99190  Biso   1.000  C
  H123     1.0000 0.81793  0.36057  0.98037  Biso   1.000  H
  C352     1.0000 0.77933  0.33137  0.00464  Biso   1.000  C
  H124     1.0000 0.72453  0.28867  0.00187  Biso   1.000  H
  C353     1.0000 0.05763  0.54417  0.98690  Biso   1.000  C
  C354     1.0000 0.11913  0.58917  0.97410  Biso   1.000  C
  H125     1.0000 0.10443  0.57647  0.96247  Biso   1.000  H
  C355     1.0000 0.19803  0.64957  0.97816  Biso   1.000  C
  H126     1.0000 0.23753  0.67867  0.96937  Biso   1.000  H
  C356     1.0000 0.70403  0.24437  0.88055  Biso   1.000  C
  C357     1.0000 0.77803  0.33227  0.84977  Biso   1.000  C
  C358     1.0000 0.77983  0.26627  0.87032  Biso   1.000  C
  C359     1.0000 0.63853  0.26777  0.87327  Biso   1.000  C
  C360     1.0000 0.73483  0.36197  0.85249  Biso   1.000  C
  Zn19     1.0000 0.45697  0.94486  0.73454  Biso   1.000  Zn
  O91      1.0000 0.57500  0.60810  0.77088  Biso   1.000  O
  O92      1.0000 0.53130  0.64920  0.74814  Biso   1.000  O
  O93      1.0000 0.55130  0.97890  0.77445  Biso   1.000  O
  O94      1.0000 0.51100  0.89960  0.75096  Biso   1.000  O
  O95      1.0000 0.41530  0.86850  0.71477  Biso   1.000  O
  N19      1.0000 0.39080  0.76068  0.69890  Biso   1.000  N
  C361     1.0000 0.57950  0.73770  0.77195  Biso   1.000  C
  C362     1.0000 0.56010  0.79320  0.76431  Biso   1.000  C
  H127     1.0000 0.54090  0.78460  0.75290  Biso   1.000  H
  C363     1.0000 0.56890  0.86150  0.77341  Biso   1.000  C
  C364     1.0000 0.59780  0.87440  0.79004  Biso   1.000  C
  H128     1.0000 0.60430  0.92150  0.79620  Biso   1.000  H
  C365     1.0000 0.61750  0.81890  0.79788  Biso   1.000  C
  C366     1.0000 0.60800  0.75030  0.78834  Biso   1.000  C
  H129     1.0000 0.62170  0.71200  0.79340  Biso   1.000  H
  C367     1.0000 0.56080  0.65840  0.76289  Biso   1.000  C
  C368     1.0000 0.54180  0.91780  0.76558  Biso   1.000  C
  C369     1.0000 0.64280  0.82830  0.81603  Biso   1.000  C
  C370     1.0000 0.58540  0.81510  0.82895  Biso   1.000  C
  C371     1.0000 0.50170  0.79480  0.82523  Biso   1.000  C
  H130     1.0000 0.48460  0.79070  0.81370  Biso   1.000  H
  C372     1.0000 0.44600  0.78130  0.83797  Biso   1.000  C
  H131     1.0000 0.39120  0.76920  0.83520  Biso   1.000  H
  C373     1.0000 0.72430  0.84680  0.82023  Biso   1.000  C
  C374     1.0000 0.78580  0.86330  0.80743  Biso   1.000  C
  H132     1.0000 0.77110  0.86130  0.79580  Biso   1.000  H
  C375     1.0000 0.86470  0.88180  0.81149  Biso   1.000  C
  H133     1.0000 0.90420  0.89220  0.80270  Biso   1.000  H
  C376     1.0000 0.37070  0.79300  0.71388  Biso   1.000  C
  C377     1.0000 0.44470  0.77910  0.68310  Biso   1.000  C
  C378     1.0000 0.44650  0.84690  0.70365  Biso   1.000  C
  C379     1.0000 0.30520  0.70410  0.70660  Biso   1.000  C
  C380     1.0000 0.40150  0.70620  0.68582  Biso   1.000  C
  Zn20     1.0000 0.12364  0.27819  0.06787  Biso   1.000  Zn
  O96      1.0000 0.24167  0.94143  0.10421  Biso   1.000  O
  O97      1.0000 0.19797  0.98253  0.08147  Biso   1.000  O
  O98      1.0000 0.21797  0.31223  0.10778  Biso   1.000  O
  O99      1.0000 0.17767  0.23293  0.08429  Biso   1.000  O
  O100     1.0000 0.08197  0.20183  0.04810  Biso   1.000  O
  N20      1.0000 0.05747  0.09401  0.03223  Biso   1.000  N
  C381     1.0000 0.24617  0.07103  0.10528  Biso   1.000  C
  C382     1.0000 0.22677  0.12653  0.09764  Biso   1.000  C
  H134     1.0000 0.20757  0.11793  0.08623  Biso   1.000  H
  C383     1.0000 0.23557  0.19483  0.10674  Biso   1.000  C
  C384     1.0000 0.26447  0.20773  0.12337  Biso   1.000  C
  H135     1.0000 0.27097  0.25483  0.12953  Biso   1.000  H
  C385     1.0000 0.28417  0.15223  0.13121  Biso   1.000  C
  C386     1.0000 0.27467  0.08363  0.12167  Biso   1.000  C
  H136     1.0000 0.28837  0.04533  0.12673  Biso   1.000  H
  C387     1.0000 0.22747  0.99173  0.09622  Biso   1.000  C
  C388     1.0000 0.20847  0.25113  0.09891  Biso   1.000  C
  C389     1.0000 0.30947  0.16163  0.14936  Biso   1.000  C
  C390     1.0000 0.25207  0.14843  0.16228  Biso   1.000  C
  C391     1.0000 0.16837  0.12813  0.15856  Biso   1.000  C
  H137     1.0000 0.15127  0.12403  0.14703  Biso   1.000  H
  C392     1.0000 0.11267  0.11463  0.17130  Biso   1.000  C
  H138     1.0000 0.05787  0.10253  0.16853  Biso   1.000  H
  C393     1.0000 0.39097  0.18013  0.15356  Biso   1.000  C
  C394     1.0000 0.45247  0.19663  0.14076  Biso   1.000  C
  H139     1.0000 0.43777  0.19463  0.12913  Biso   1.000  H
  C395     1.0000 0.53137  0.21513  0.14482  Biso   1.000  C
  H140     1.0000 0.57087  0.22553  0.13603  Biso   1.000  H
  C396     1.0000 0.03737  0.12633  0.04721  Biso   1.000  C
  C397     1.0000 0.11137  0.11243  0.01643  Biso   1.000  C
  C398     1.0000 0.11317  0.18023  0.03698  Biso   1.000  C
  C399     1.0000 0.97187  0.03743  0.03993  Biso   1.000  C
  C400     1.0000 0.06817  0.03953  0.01915  Biso   1.000  C
  Zn21     1.0000 0.79030  0.61153  0.40121  Biso   1.000  Zn
  O101     1.0000 0.90833  0.27477  0.43755  Biso   1.000  O
  O102     1.0000 0.86463  0.31587  0.41481  Biso   1.000  O
  O103     1.0000 0.88463  0.64557  0.44112  Biso   1.000  O
  O104     1.0000 0.84433  0.56627  0.41763  Biso   1.000  O
  O105     1.0000 0.74863  0.53517  0.38144  Biso   1.000  O
  N21      1.0000 0.72413  0.42735  0.36557  Biso   1.000  N
  C401     1.0000 0.91283  0.40437  0.43862  Biso   1.000  C
  C402     1.0000 0.89343  0.45987  0.43098  Biso   1.000  C
  H141     1.0000 0.87423  0.45127  0.41957  Biso   1.000  H
  C403     1.0000 0.90223  0.52817  0.44008  Biso   1.000  C
  C404     1.0000 0.93113  0.54107  0.45671  Biso   1.000  C
  H142     1.0000 0.93763  0.58817  0.46287  Biso   1.000  H
  C405     1.0000 0.95083  0.48557  0.46455  Biso   1.000  C
  C406     1.0000 0.94133  0.41697  0.45501  Biso   1.000  C
  H143     1.0000 0.95503  0.37867  0.46007  Biso   1.000  H
  C407     1.0000 0.89413  0.32507  0.42956  Biso   1.000  C
  C408     1.0000 0.87513  0.58447  0.43225  Biso   1.000  C
  C409     1.0000 0.97613  0.49497  0.48270  Biso   1.000  C
  C410     1.0000 0.91873  0.48177  0.49562  Biso   1.000  C
  C411     1.0000 0.83503  0.46147  0.49190  Biso   1.000  C
  H144     1.0000 0.81793  0.45737  0.48037  Biso   1.000  H
  C412     1.0000 0.77933  0.44797  0.50464  Biso   1.000  C
  H145     1.0000 0.72453  0.43587  0.50187  Biso   1.000  H
  C413     1.0000 0.05763  0.51347  0.48690  Biso   1.000  C
  C414     1.0000 0.11913  0.52997  0.47410  Biso   1.000  C
  H146     1.0000 0.10443  0.52797  0.46247  Biso   1.000  H
  C415     1.0000 0.19803  0.54847  0.47816  Biso   1.000  C
  H147     1.0000 0.23753  0.55887  0.46937  Biso   1.000  H
  C416     1.0000 0.70403  0.45967  0.38055  Biso   1.000  C
  C417     1.0000 0.77803  0.44577  0.34977  Biso   1.000  C
  C418     1.0000 0.77983  0.51357  0.37032  Biso   1.000  C
  C419     1.0000 0.63853  0.37077  0.37327  Biso   1.000  C
  C420     1.0000 0.73483  0.37287  0.35249  Biso   1.000  C
  Zn22     1.0000 0.05514  0.51211  0.73454  Biso   1.000  Zn
  O106     1.0000 0.39190  0.96690  0.77088  Biso   1.000  O
  O107     1.0000 0.35080  0.88210  0.74814  Biso   1.000  O
  O108     1.0000 0.02110  0.57240  0.77445  Biso   1.000  O
  O109     1.0000 0.10040  0.61140  0.75096  Biso   1.000  O
  O110     1.0000 0.13150  0.54680  0.71477  Biso   1.000  O
  N22      1.0000 0.23932  0.63012  0.69890  Biso   1.000  N
  C421     1.0000 0.26230  0.84180  0.77195  Biso   1.000  C
  C422     1.0000 0.20680  0.76690  0.76431  Biso   1.000  C
  H148     1.0000 0.21540  0.75630  0.75290  Biso   1.000  H
  C423     1.0000 0.13850  0.70740  0.77341  Biso   1.000  C
  C424     1.0000 0.12560  0.72340  0.79004  Biso   1.000  C
  H149     1.0000 0.07850  0.68280  0.79620  Biso   1.000  H
  C425     1.0000 0.18110  0.79860  0.79788  Biso   1.000  C
  C426     1.0000 0.24970  0.85770  0.78834  Biso   1.000  C
  H150     1.0000 0.28800  0.90970  0.79340  Biso   1.000  H
  C427     1.0000 0.34160  0.90240  0.76289  Biso   1.000  C
  C428     1.0000 0.08220  0.62400  0.76558  Biso   1.000  C
  C429     1.0000 0.17170  0.81450  0.81603  Biso   1.000  C
  C430     1.0000 0.18490  0.77030  0.82895  Biso   1.000  C
  C431     1.0000 0.20520  0.70690  0.82523  Biso   1.000  C
  H151     1.0000 0.20930  0.69390  0.81370  Biso   1.000  H
  C432     1.0000 0.21870  0.66470  0.83797  Biso   1.000  C
  H152     1.0000 0.23080  0.62200  0.83520  Biso   1.000  H
  C433     1.0000 0.15320  0.87750  0.82023  Biso   1.000  C
  C434     1.0000 0.13670  0.92250  0.80743  Biso   1.000  C
  H153     1.0000 0.13870  0.90980  0.79580  Biso   1.000  H
  C435     1.0000 0.11820  0.98290  0.81149  Biso   1.000  C
  H154     1.0000 0.10780  0.01200  0.80270  Biso   1.000  H
  C436     1.0000 0.20700  0.57770  0.71388  Biso   1.000  C
  C437     1.0000 0.22090  0.66560  0.68310  Biso   1.000  C
  C438     1.0000 0.15310  0.59960  0.70365  Biso   1.000  C
  C439     1.0000 0.29590  0.60110  0.70660  Biso   1.000  C
  C440     1.0000 0.29380  0.69530  0.68582  Biso   1.000  C
  Zn23     1.0000 0.72181  0.84544  0.06787  Biso   1.000  Zn
  O111     1.0000 0.05857  0.30023  0.10421  Biso   1.000  O
  O112     1.0000 0.01747  0.21543  0.08147  Biso   1.000  O
  O113     1.0000 0.68777  0.90573  0.10778  Biso   1.000  O
  O114     1.0000 0.76707  0.94473  0.08429  Biso   1.000  O
  O115     1.0000 0.79817  0.88013  0.04810  Biso   1.000  O
  N23      1.0000 0.90599  0.96345  0.03223  Biso   1.000  N
  C441     1.0000 0.92897  0.17513  0.10528  Biso   1.000  C
  C442     1.0000 0.87347  0.10023  0.09764  Biso   1.000  C
  H155     1.0000 0.88207  0.08963  0.08623  Biso   1.000  H
  C443     1.0000 0.80517  0.04073  0.10674  Biso   1.000  C
  C444     1.0000 0.79227  0.05673  0.12337  Biso   1.000  C
  H156     1.0000 0.74517  0.01613  0.12953  Biso   1.000  H
  C445     1.0000 0.84777  0.13193  0.13121  Biso   1.000  C
  C446     1.0000 0.91637  0.19103  0.12167  Biso   1.000  C
  H157     1.0000 0.95467  0.24303  0.12673  Biso   1.000  H
  C447     1.0000 0.00827  0.23573  0.09622  Biso   1.000  C
  C448     1.0000 0.74887  0.95733  0.09891  Biso   1.000  C
  C449     1.0000 0.83837  0.14783  0.14936  Biso   1.000  C
  C450     1.0000 0.85157  0.10363  0.16228  Biso   1.000  C
  C451     1.0000 0.87187  0.04023  0.15856  Biso   1.000  C
  H158     1.0000 0.87597  0.02723  0.14703  Biso   1.000  H
  C452     1.0000 0.88537  0.99803  0.17130  Biso   1.000  C
  H159     1.0000 0.89747  0.95533  0.16853  Biso   1.000  H
  C453     1.0000 0.81987  0.21083  0.15356  Biso   1.000  C
  C454     1.0000 0.80337  0.25583  0.14076  Biso   1.000  C
  H160     1.0000 0.80537  0.24313  0.12913  Biso   1.000  H
  C455     1.0000 0.78487  0.31623  0.14482  Biso   1.000  C
  H161     1.0000 0.77447  0.34533  0.13603  Biso   1.000  H
  C456     1.0000 0.87367  0.91103  0.04721  Biso   1.000  C
  C457     1.0000 0.88757  0.99893  0.01643  Biso   1.000  C
  C458     1.0000 0.81977  0.93293  0.03698  Biso   1.000  C
  C459     1.0000 0.96257  0.93443  0.03993  Biso   1.000  C
  C460     1.0000 0.96047  0.02863  0.01915  Biso   1.000  C
  Zn24     1.0000 0.38847  0.17878  0.40121  Biso   1.000  Zn
  O116     1.0000 0.72523  0.63357  0.43755  Biso   1.000  O
  O117     1.0000 0.68413  0.54877  0.41481  Biso   1.000  O
  O118     1.0000 0.35443  0.23907  0.44112  Biso   1.000  O
  O119     1.0000 0.43373  0.27807  0.41763  Biso   1.000  O
  O120     1.0000 0.46483  0.21347  0.38144  Biso   1.000  O
  N24      1.0000 0.57265  0.29679  0.36557  Biso   1.000  N
  C461     1.0000 0.59563  0.50847  0.43862  Biso   1.000  C
  C462     1.0000 0.54013  0.43357  0.43098  Biso   1.000  C
  H162     1.0000 0.54873  0.42297  0.41957  Biso   1.000  H
  C463     1.0000 0.47183  0.37407  0.44008  Biso   1.000  C
  C464     1.0000 0.45893  0.39007  0.45671  Biso   1.000  C
  H163     1.0000 0.41183  0.34947  0.46287  Biso   1.000  H
  C465     1.0000 0.51443  0.46527  0.46455  Biso   1.000  C
  C466     1.0000 0.58303  0.52437  0.45501  Biso   1.000  C
  H164     1.0000 0.62133  0.57637  0.46007  Biso   1.000  H
  C467     1.0000 0.67493  0.56907  0.42956  Biso   1.000  C
  C468     1.0000 0.41553  0.29067  0.43225  Biso   1.000  C
  C469     1.0000 0.50503  0.48117  0.48270  Biso   1.000  C
  C470     1.0000 0.51823  0.43697  0.49562  Biso   1.000  C
  C471     1.0000 0.53853  0.37357  0.49190  Biso   1.000  C
  H165     1.0000 0.54263  0.36057  0.48037  Biso   1.000  H
  C472     1.0000 0.55203  0.33137  0.50464  Biso   1.000  C
  H166     1.0000 0.56413  0.28867  0.50187  Biso   1.000  H
  C473     1.0000 0.48653  0.54417  0.48690  Biso   1.000  C
  C474     1.0000 0.47003  0.58917  0.47410  Biso   1.000  C
  H167     1.0000 0.47203  0.57647  0.46247  Biso   1.000  H
  C475     1.0000 0.45153  0.64957  0.47816  Biso   1.000  C
  H168     1.0000 0.44113  0.67867  0.46937  Biso   1.000  H
  C476     1.0000 0.54033  0.24437  0.38055  Biso   1.000  C
  C477     1.0000 0.55423  0.33227  0.34977  Biso   1.000  C
  C478     1.0000 0.48643  0.26627  0.37032  Biso   1.000  C
  C479     1.0000 0.62923  0.26777  0.37327  Biso   1.000  C
  C480     1.0000 0.62713  0.36197  0.35249  Biso   1.000  C
  Zn25     1.0000 0.48789  0.54303  0.73454  Biso   1.000  Zn
  O121     1.0000 0.03310  0.42500  0.77088  Biso   1.000  O
  O122     1.0000 0.11790  0.46870  0.74814  Biso   1.000  O
  O123     1.0000 0.42760  0.44870  0.77445  Biso   1.000  O
  O124     1.0000 0.38860  0.48900  0.75096  Biso   1.000  O
  O125     1.0000 0.45320  0.58470  0.71477  Biso   1.000  O
  N25      1.0000 0.36988  0.60920  0.69890  Biso   1.000  N
  C481     1.0000 0.15820  0.42050  0.77195  Biso   1.000  C
  C482     1.0000 0.23310  0.43990  0.76431  Biso   1.000  C
  H169     1.0000 0.24370  0.45910  0.75290  Biso   1.000  H
  C483     1.0000 0.29260  0.43110  0.77341  Biso   1.000  C
  C484     1.0000 0.27660  0.40220  0.79004  Biso   1.000  C
  H170     1.0000 0.31720  0.39570  0.79620  Biso   1.000  H
  C485     1.0000 0.20140  0.38250  0.79788  Biso   1.000  C
  C486     1.0000 0.14230  0.39200  0.78834  Biso   1.000  C
  H171     1.0000 0.09030  0.37830  0.79340  Biso   1.000  H
  C487     1.0000 0.09760  0.43920  0.76289  Biso   1.000  C
  C488     1.0000 0.37600  0.45820  0.76558  Biso   1.000  C
  C489     1.0000 0.18550  0.35720  0.81603  Biso   1.000  C
  C490     1.0000 0.22970  0.41460  0.82895  Biso   1.000  C
  C491     1.0000 0.29310  0.49830  0.82523  Biso   1.000  C
  H172     1.0000 0.30610  0.51540  0.81370  Biso   1.000  H
  C492     1.0000 0.33530  0.55400  0.83797  Biso   1.000  C
  H173     1.0000 0.37800  0.60880  0.83520  Biso   1.000  H
  C493     1.0000 0.12250  0.27570  0.82023  Biso   1.000  C
  C494     1.0000 0.07750  0.21420  0.80743  Biso   1.000  C
  H174     1.0000 0.09020  0.22890  0.79580  Biso   1.000  H
  C495     1.0000 0.01710  0.13530  0.81149  Biso   1.000  C
  H175     1.0000 0.98800  0.09580  0.80270  Biso   1.000  H
  C496     1.0000 0.42230  0.62930  0.71388  Biso   1.000  C
  C497     1.0000 0.33440  0.55530  0.68310  Biso   1.000  C
  C498     1.0000 0.40040  0.55350  0.70365  Biso   1.000  C
  C499     1.0000 0.39890  0.69480  0.70660  Biso   1.000  C
  C500     1.0000 0.30470  0.59850  0.68582  Biso   1.000  C
  Zn26     1.0000 0.15456  0.87636  0.06787  Biso   1.000  Zn
  O126     1.0000 0.69977  0.75833  0.10421  Biso   1.000  O
  O127     1.0000 0.78457  0.80203  0.08147  Biso   1.000  O
  O128     1.0000 0.09427  0.78203  0.10778  Biso   1.000  O
  O129     1.0000 0.05527  0.82233  0.08429  Biso   1.000  O
  O130     1.0000 0.11987  0.91803  0.04810  Biso   1.000  O
  N26      1.0000 0.03655  0.94253  0.03223  Biso   1.000  N
  C501     1.0000 0.82487  0.75383  0.10528  Biso   1.000  C
  C502     1.0000 0.89977  0.77323  0.09764  Biso   1.000  C
  H176     1.0000 0.91037  0.79243  0.08623  Biso   1.000  H
  C503     1.0000 0.95927  0.76443  0.10674  Biso   1.000  C
  C504     1.0000 0.94327  0.73553  0.12337  Biso   1.000  C
  H177     1.0000 0.98387  0.72903  0.12953  Biso   1.000  H
  C505     1.0000 0.86807  0.71583  0.13121  Biso   1.000  C
  C506     1.0000 0.80897  0.72533  0.12167  Biso   1.000  C
  H178     1.0000 0.75697  0.71163  0.12673  Biso   1.000  H
  C507     1.0000 0.76427  0.77253  0.09622  Biso   1.000  C
  C508     1.0000 0.04267  0.79153  0.09891  Biso   1.000  C
  C509     1.0000 0.85217  0.69053  0.14936  Biso   1.000  C
  C510     1.0000 0.89637  0.74793  0.16228  Biso   1.000  C
  C511     1.0000 0.95977  0.83163  0.15856  Biso   1.000  C
  H179     1.0000 0.97277  0.84873  0.14703  Biso   1.000  H
  C512     1.0000 0.00197  0.88733  0.17130  Biso   1.000  C
  H180     1.0000 0.04467  0.94213  0.16853  Biso   1.000  H
  C513     1.0000 0.78917  0.60903  0.15356  Biso   1.000  C
  C514     1.0000 0.74417  0.54753  0.14076  Biso   1.000  C
  H181     1.0000 0.75687  0.56223  0.12913  Biso   1.000  H
  C515     1.0000 0.68377  0.46863  0.14482  Biso   1.000  C
  H182     1.0000 0.65467  0.42913  0.13603  Biso   1.000  H
  C516     1.0000 0.08897  0.96263  0.04721  Biso   1.000  C
  C517     1.0000 0.00107  0.88863  0.01643  Biso   1.000  C
  C518     1.0000 0.06707  0.88683  0.03698  Biso   1.000  C
  C519     1.0000 0.06557  0.02813  0.03993  Biso   1.000  C
  C520     1.0000 0.97137  0.93183  0.01915  Biso   1.000  C
  Zn27     1.0000 0.82122  0.20970  0.40121  Biso   1.000  Zn
  O131     1.0000 0.36643  0.09167  0.43755  Biso   1.000  O
  O132     1.0000 0.45123  0.13537  0.41481  Biso   1.000  O
  O133     1.0000 0.76093  0.11537  0.44112  Biso   1.000  O
  O134     1.0000 0.72193  0.15567  0.41763  Biso   1.000  O
  O135     1.0000 0.78653  0.25137  0.38144  Biso   1.000  O
  N27      1.0000 0.70321  0.27587  0.36557  Biso   1.000  N
  C521     1.0000 0.49153  0.08717  0.43862  Biso   1.000  C
  C522     1.0000 0.56643  0.10657  0.43098  Biso   1.000  C
  H183     1.0000 0.57703  0.12577  0.41957  Biso   1.000  H
  C523     1.0000 0.62593  0.09777  0.44008  Biso   1.000  C
  C524     1.0000 0.60993  0.06887  0.45671  Biso   1.000  C
  H184     1.0000 0.65053  0.06237  0.46287  Biso   1.000  H
  C525     1.0000 0.53473  0.04917  0.46455  Biso   1.000  C
  C526     1.0000 0.47563  0.05867  0.45501  Biso   1.000  C
  H185     1.0000 0.42363  0.04497  0.46007  Biso   1.000  H
  C527     1.0000 0.43093  0.10587  0.42956  Biso   1.000  C
  C528     1.0000 0.70933  0.12487  0.43225  Biso   1.000  C
  C529     1.0000 0.51883  0.02387  0.48270  Biso   1.000  C
  C530     1.0000 0.56303  0.08127  0.49562  Biso   1.000  C
  C531     1.0000 0.62643  0.16497  0.49190  Biso   1.000  C
  H186     1.0000 0.63943  0.18207  0.48037  Biso   1.000  H
  C532     1.0000 0.66863  0.22067  0.50464  Biso   1.000  C
  H187     1.0000 0.71133  0.27547  0.50187  Biso   1.000  H
  C533     1.0000 0.45583  0.94237  0.48690  Biso   1.000  C
  C534     1.0000 0.41083  0.88087  0.47410  Biso   1.000  C
  H188     1.0000 0.42353  0.89557  0.46247  Biso   1.000  H
  C535     1.0000 0.35043  0.80197  0.47816  Biso   1.000  C
  H189     1.0000 0.32133  0.76247  0.46937  Biso   1.000  H
  C536     1.0000 0.75563  0.29597  0.38055  Biso   1.000  C
  C537     1.0000 0.66773  0.22197  0.34977  Biso   1.000  C
  C538     1.0000 0.73373  0.22017  0.37032  Biso   1.000  C
  C539     1.0000 0.73223  0.36147  0.37327  Biso   1.000  C
  C540     1.0000 0.63803  0.26517  0.35249  Biso   1.000  C
  Zn28     1.0000 0.94486  0.45697  0.76546  Biso   1.000  Zn
  O136     1.0000 0.60810  0.57500  0.72912  Biso   1.000  O
  O137     1.0000 0.64920  0.53130  0.75186  Biso   1.000  O
  O138     1.0000 0.97890  0.55130  0.72555  Biso   1.000  O
  O139     1.0000 0.89960  0.51100  0.74904  Biso   1.000  O
  O140     1.0000 0.86850  0.41530  0.78523  Biso   1.000  O
  N28      1.0000 0.76068  0.39080  0.80110  Biso   1.000  N
  C541     1.0000 0.73770  0.57950  0.72805  Biso   1.000  C
  C542     1.0000 0.79320  0.56010  0.73569  Biso   1.000  C
  H190     1.0000 0.78460  0.54090  0.74710  Biso   1.000  H
  C543     1.0000 0.86150  0.56890  0.72659  Biso   1.000  C
  C544     1.0000 0.87440  0.59780  0.70996  Biso   1.000  C
  H191     1.0000 0.92150  0.60430  0.70380  Biso   1.000  H
  C545     1.0000 0.81890  0.61750  0.70212  Biso   1.000  C
  C546     1.0000 0.75030  0.60800  0.71166  Biso   1.000  C
  H192     1.0000 0.71200  0.62170  0.70660  Biso   1.000  H
  C547     1.0000 0.65840  0.56080  0.73711  Biso   1.000  C
  C548     1.0000 0.91780  0.54180  0.73442  Biso   1.000  C
  C549     1.0000 0.82830  0.64280  0.68397  Biso   1.000  C
  C550     1.0000 0.81510  0.58540  0.67105  Biso   1.000  C
  C551     1.0000 0.79480  0.50170  0.67477  Biso   1.000  C
  H193     1.0000 0.79070  0.48460  0.68630  Biso   1.000  H
  C552     1.0000 0.78130  0.44600  0.66203  Biso   1.000  C
  H194     1.0000 0.76920  0.39120  0.66480  Biso   1.000  H
  C553     1.0000 0.84680  0.72430  0.67977  Biso   1.000  C
  C554     1.0000 0.86330  0.78580  0.69257  Biso   1.000  C
  H195     1.0000 0.86130  0.77110  0.70420  Biso   1.000  H
  C555     1.0000 0.88180  0.86470  0.68851  Biso   1.000  C
  H196     1.0000 0.89220  0.90420  0.69730  Biso   1.000  H
  C556     1.0000 0.79300  0.37070  0.78612  Biso   1.000  C
  C557     1.0000 0.77910  0.44470  0.81690  Biso   1.000  C
  C558     1.0000 0.84690  0.44650  0.79635  Biso   1.000  C
  C559     1.0000 0.70410  0.30520  0.79340  Biso   1.000  C
  C560     1.0000 0.70620  0.40150  0.81418  Biso   1.000  C
  Zn29     1.0000 0.61153  0.79030  0.09879  Biso   1.000  Zn
  O141     1.0000 0.27477  0.90833  0.06245  Biso   1.000  O
  O142     1.0000 0.31587  0.86463  0.08519  Biso   1.000  O
  O143     1.0000 0.64557  0.88463  0.05888  Biso   1.000  O
  O144     1.0000 0.56627  0.84433  0.08237  Biso   1.000  O
  O145     1.0000 0.53517  0.74863  0.11856  Biso   1.000  O
  N29      1.0000 0.42735  0.72413  0.13443  Biso   1.000  N
  C561     1.0000 0.40437  0.91283  0.06138  Biso   1.000  C
  C562     1.0000 0.45987  0.89343  0.06902  Biso   1.000  C
  H197     1.0000 0.45127  0.87423  0.08043  Biso   1.000  H
  C563     1.0000 0.52817  0.90223  0.05992  Biso   1.000  C
  C564     1.0000 0.54107  0.93113  0.04329  Biso   1.000  C
  H198     1.0000 0.58817  0.93763  0.03713  Biso   1.000  H
  C565     1.0000 0.48557  0.95083  0.03545  Biso   1.000  C
  C566     1.0000 0.41697  0.94133  0.04499  Biso   1.000  C
  H199     1.0000 0.37867  0.95503  0.03993  Biso   1.000  H
  C567     1.0000 0.32507  0.89413  0.07044  Biso   1.000  C
  C568     1.0000 0.58447  0.87513  0.06775  Biso   1.000  C
  C569     1.0000 0.49497  0.97613  0.01730  Biso   1.000  C
  C570     1.0000 0.48177  0.91873  0.00438  Biso   1.000  C
  C571     1.0000 0.46147  0.83503  0.00810  Biso   1.000  C
  H200     1.0000 0.45737  0.81793  0.01963  Biso   1.000  H
  C572     1.0000 0.44797  0.77933  0.99536  Biso   1.000  C
  H201     1.0000 0.43587  0.72453  0.99813  Biso   1.000  H
  C573     1.0000 0.51347  0.05763  0.01310  Biso   1.000  C
  C574     1.0000 0.52997  0.11913  0.02590  Biso   1.000  C
  H202     1.0000 0.52797  0.10443  0.03753  Biso   1.000  H
  C575     1.0000 0.54847  0.19803  0.02184  Biso   1.000  C
  H203     1.0000 0.55887  0.23753  0.03063  Biso   1.000  H
  C576     1.0000 0.45967  0.70403  0.11945  Biso   1.000  C
  C577     1.0000 0.44577  0.77803  0.15023  Biso   1.000  C
  C578     1.0000 0.51357  0.77983  0.12968  Biso   1.000  C
  C579     1.0000 0.37077  0.63853  0.12673  Biso   1.000  C
  C580     1.0000 0.37287  0.73483  0.14751  Biso   1.000  C
  Zn30     1.0000 0.27819  0.12364  0.43213  Biso   1.000  Zn
  O146     1.0000 0.94143  0.24167  0.39579  Biso   1.000  O
  O147     1.0000 0.98253  0.19797  0.41853  Biso   1.000  O
  O148     1.0000 0.31223  0.21797  0.39222  Biso   1.000  O
  O149     1.0000 0.23293  0.17767  0.41571  Biso   1.000  O
  O150     1.0000 0.20183  0.08197  0.45190  Biso   1.000  O
  N30      1.0000 0.09401  0.05747  0.46777  Biso   1.000  N
  C581     1.0000 0.07103  0.24617  0.39472  Biso   1.000  C
  C582     1.0000 0.12653  0.22677  0.40236  Biso   1.000  C
  H204     1.0000 0.11793  0.20757  0.41377  Biso   1.000  H
  C583     1.0000 0.19483  0.23557  0.39326  Biso   1.000  C
  C584     1.0000 0.20773  0.26447  0.37663  Biso   1.000  C
  H205     1.0000 0.25483  0.27097  0.37047  Biso   1.000  H
  C585     1.0000 0.15223  0.28417  0.36879  Biso   1.000  C
  C586     1.0000 0.08363  0.27467  0.37833  Biso   1.000  C
  H206     1.0000 0.04533  0.28837  0.37327  Biso   1.000  H
  C587     1.0000 0.99173  0.22747  0.40378  Biso   1.000  C
  C588     1.0000 0.25113  0.20847  0.40109  Biso   1.000  C
  C589     1.0000 0.16163  0.30947  0.35064  Biso   1.000  C
  C590     1.0000 0.14843  0.25207  0.33772  Biso   1.000  C
  C591     1.0000 0.12813  0.16837  0.34144  Biso   1.000  C
  H207     1.0000 0.12403  0.15127  0.35297  Biso   1.000  H
  C592     1.0000 0.11463  0.11267  0.32870  Biso   1.000  C
  H208     1.0000 0.10253  0.05787  0.33147  Biso   1.000  H
  C593     1.0000 0.18013  0.39097  0.34644  Biso   1.000  C
  C594     1.0000 0.19663  0.45247  0.35924  Biso   1.000  C
  H209     1.0000 0.19463  0.43777  0.37087  Biso   1.000  H
  C595     1.0000 0.21513  0.53137  0.35518  Biso   1.000  C
  H210     1.0000 0.22553  0.57087  0.36397  Biso   1.000  H
  C596     1.0000 0.12633  0.03737  0.45279  Biso   1.000  C
  C597     1.0000 0.11243  0.11137  0.48357  Biso   1.000  C
  C598     1.0000 0.18023  0.11317  0.46302  Biso   1.000  C
  C599     1.0000 0.03743  0.97187  0.46007  Biso   1.000  C
  C600     1.0000 0.03953  0.06817  0.48085  Biso   1.000  C
  Zn31     1.0000 0.51211  0.05514  0.76546  Biso   1.000  Zn
  O151     1.0000 0.96690  0.39190  0.72912  Biso   1.000  O
  O152     1.0000 0.88210  0.35080  0.75186  Biso   1.000  O
  O153     1.0000 0.57240  0.02110  0.72555  Biso   1.000  O
  O154     1.0000 0.61140  0.10040  0.74904  Biso   1.000  O
  O155     1.0000 0.54680  0.13150  0.78523  Biso   1.000  O
  N31      1.0000 0.63012  0.23932  0.80110  Biso   1.000  N
  C601     1.0000 0.84180  0.26230  0.72805  Biso   1.000  C
  C602     1.0000 0.76690  0.20680  0.73569  Biso   1.000  C
  H211     1.0000 0.75630  0.21540  0.74710  Biso   1.000  H
  C603     1.0000 0.70740  0.13850  0.72659  Biso   1.000  C
  C604     1.0000 0.72340  0.12560  0.70996  Biso   1.000  C
  H212     1.0000 0.68280  0.07850  0.70380  Biso   1.000  H
  C605     1.0000 0.79860  0.18110  0.70212  Biso   1.000  C
  C606     1.0000 0.85770  0.24970  0.71166  Biso   1.000  C
  H213     1.0000 0.90970  0.28800  0.70660  Biso   1.000  H
  C607     1.0000 0.90240  0.34160  0.73711  Biso   1.000  C
  C608     1.0000 0.62400  0.08220  0.73442  Biso   1.000  C
  C609     1.0000 0.81450  0.17170  0.68397  Biso   1.000  C
  C610     1.0000 0.77030  0.18490  0.67105  Biso   1.000  C
  C611     1.0000 0.70690  0.20520  0.67477  Biso   1.000  C
  H214     1.0000 0.69390  0.20930  0.68630  Biso   1.000  H
  C612     1.0000 0.66470  0.21870  0.66203  Biso   1.000  C
  H215     1.0000 0.62200  0.23080  0.66480  Biso   1.000  H
  C613     1.0000 0.87750  0.15320  0.67977  Biso   1.000  C
  C614     1.0000 0.92250  0.13670  0.69257  Biso   1.000  C
  H216     1.0000 0.90980  0.13870  0.70420  Biso   1.000  H
  C615     1.0000 0.98290  0.11820  0.68851  Biso   1.000  C
  H217     1.0000 0.01200  0.10780  0.69730  Biso   1.000  H
  C616     1.0000 0.57770  0.20700  0.78612  Biso   1.000  C
  C617     1.0000 0.66560  0.22090  0.81690  Biso   1.000  C
  C618     1.0000 0.59960  0.15310  0.79635  Biso   1.000  C
  C619     1.0000 0.60110  0.29590  0.79340  Biso   1.000  C
  C620     1.0000 0.69530  0.29380  0.81418  Biso   1.000  C
  Zn32     1.0000 0.17878  0.38847  0.09879  Biso   1.000  Zn
  O156     1.0000 0.63357  0.72523  0.06245  Biso   1.000  O
  O157     1.0000 0.54877  0.68413  0.08519  Biso   1.000  O
  O158     1.0000 0.23907  0.35443  0.05888  Biso   1.000  O
  O159     1.0000 0.27807  0.43373  0.08237  Biso   1.000  O
  O160     1.0000 0.21347  0.46483  0.11856  Biso   1.000  O
  N32      1.0000 0.29679  0.57265  0.13443  Biso   1.000  N
  C621     1.0000 0.50847  0.59563  0.06138  Biso   1.000  C
  C622     1.0000 0.43357  0.54013  0.06902  Biso   1.000  C
  H218     1.0000 0.42297  0.54873  0.08043  Biso   1.000  H
  C623     1.0000 0.37407  0.47183  0.05992  Biso   1.000  C
  C624     1.0000 0.39007  0.45893  0.04329  Biso   1.000  C
  H219     1.0000 0.34947  0.41183  0.03713  Biso   1.000  H
  C625     1.0000 0.46527  0.51443  0.03545  Biso   1.000  C
  C626     1.0000 0.52437  0.58303  0.04499  Biso   1.000  C
  H220     1.0000 0.57637  0.62133  0.03993  Biso   1.000  H
  C627     1.0000 0.56907  0.67493  0.07044  Biso   1.000  C
  C628     1.0000 0.29067  0.41553  0.06775  Biso   1.000  C
  C629     1.0000 0.48117  0.50503  0.01730  Biso   1.000  C
  C630     1.0000 0.43697  0.51823  0.00438  Biso   1.000  C
  C631     1.0000 0.37357  0.53853  0.00810  Biso   1.000  C
  H221     1.0000 0.36057  0.54263  0.01963  Biso   1.000  H
  C632     1.0000 0.33137  0.55203  0.99536  Biso   1.000  C
  H222     1.0000 0.28867  0.56413  0.99813  Biso   1.000  H
  C633     1.0000 0.54417  0.48653  0.01310  Biso   1.000  C
  C634     1.0000 0.58917  0.47003  0.02590  Biso   1.000  C
  H223     1.0000 0.57647  0.47203  0.03753  Biso   1.000  H
  C635     1.0000 0.64957  0.45153  0.02184  Biso   1.000  C
  H224     1.0000 0.67867  0.44113  0.03063  Biso   1.000  H
  C636     1.0000 0.24437  0.54033  0.11945  Biso   1.000  C
  C637     1.0000 0.33227  0.55423  0.15023  Biso   1.000  C
  C638     1.0000 0.26627  0.48643  0.12968  Biso   1.000  C
  C639     1.0000 0.26777  0.62923  0.12673  Biso   1.000  C
  C640     1.0000 0.36197  0.62713  0.14751  Biso   1.000  C
  Zn33     1.0000 0.84544  0.72181  0.43213  Biso   1.000  Zn
  O161     1.0000 0.30023  0.05857  0.39579  Biso   1.000  O
  O162     1.0000 0.21543  0.01747  0.41853  Biso   1.000  O
  O163     1.0000 0.90573  0.68777  0.39222  Biso   1.000  O
  O164     1.0000 0.94473  0.76707  0.41571  Biso   1.000  O
  O165     1.0000 0.88013  0.79817  0.45190  Biso   1.000  O
  N33      1.0000 0.96345  0.90599  0.46777  Biso   1.000  N
  C641     1.0000 0.17513  0.92897  0.39472  Biso   1.000  C
  C642     1.0000 0.10023  0.87347  0.40236  Biso   1.000  C
  H225     1.0000 0.08963  0.88207  0.41377  Biso   1.000  H
  C643     1.0000 0.04073  0.80517  0.39326  Biso   1.000  C
  C644     1.0000 0.05673  0.79227  0.37663  Biso   1.000  C
  H226     1.0000 0.01613  0.74517  0.37047  Biso   1.000  H
  C645     1.0000 0.13193  0.84777  0.36879  Biso   1.000  C
  C646     1.0000 0.19103  0.91637  0.37833  Biso   1.000  C
  H227     1.0000 0.24303  0.95467  0.37327  Biso   1.000  H
  C647     1.0000 0.23573  0.00827  0.40378  Biso   1.000  C
  C648     1.0000 0.95733  0.74887  0.40109  Biso   1.000  C
  C649     1.0000 0.14783  0.83837  0.35064  Biso   1.000  C
  C650     1.0000 0.10363  0.85157  0.33772  Biso   1.000  C
  C651     1.0000 0.04023  0.87187  0.34144  Biso   1.000  C
  H228     1.0000 0.02723  0.87597  0.35297  Biso   1.000  H
  C652     1.0000 0.99803  0.88537  0.32870  Biso   1.000  C
  H229     1.0000 0.95533  0.89747  0.33147  Biso   1.000  H
  C653     1.0000 0.21083  0.81987  0.34644  Biso   1.000  C
  C654     1.0000 0.25583  0.80337  0.35924  Biso   1.000  C
  H230     1.0000 0.24313  0.80537  0.37087  Biso   1.000  H
  C655     1.0000 0.31623  0.78487  0.35518  Biso   1.000  C
  H231     1.0000 0.34533  0.77447  0.36397  Biso   1.000  H
  C656     1.0000 0.91103  0.87367  0.45279  Biso   1.000  C
  C657     1.0000 0.99893  0.88757  0.48357  Biso   1.000  C
  C658     1.0000 0.93293  0.81977  0.46302  Biso   1.000  C
  C659     1.0000 0.93443  0.96257  0.46007  Biso   1.000  C
  C660     1.0000 0.02863  0.96047  0.48085  Biso   1.000  C
  Zn34     1.0000 0.54303  0.48789  0.76546  Biso   1.000  Zn
  O166     1.0000 0.42500  0.03310  0.72912  Biso   1.000  O
  O167     1.0000 0.46870  0.11790  0.75186  Biso   1.000  O
  O168     1.0000 0.44870  0.42760  0.72555  Biso   1.000  O
  O169     1.0000 0.48900  0.38860  0.74904  Biso   1.000  O
  O170     1.0000 0.58470  0.45320  0.78523  Biso   1.000  O
  N34      1.0000 0.60920  0.36988  0.80110  Biso   1.000  N
  C661     1.0000 0.42050  0.15820  0.72805  Biso   1.000  C
  C662     1.0000 0.43990  0.23310  0.73569  Biso   1.000  C
  H232     1.0000 0.45910  0.24370  0.74710  Biso   1.000  H
  C663     1.0000 0.43110  0.29260  0.72659  Biso   1.000  C
  C664     1.0000 0.40220  0.27660  0.70996  Biso   1.000  C
  H233     1.0000 0.39570  0.31720  0.70380  Biso   1.000  H
  C665     1.0000 0.38250  0.20140  0.70212  Biso   1.000  C
  C666     1.0000 0.39200  0.14230  0.71166  Biso   1.000  C
  H234     1.0000 0.37830  0.09030  0.70660  Biso   1.000  H
  C667     1.0000 0.43920  0.09760  0.73711  Biso   1.000  C
  C668     1.0000 0.45820  0.37600  0.73442  Biso   1.000  C
  C669     1.0000 0.35720  0.18550  0.68397  Biso   1.000  C
  C670     1.0000 0.41460  0.22970  0.67105  Biso   1.000  C
  C671     1.0000 0.49830  0.29310  0.67477  Biso   1.000  C
  H235     1.0000 0.51540  0.30610  0.68630  Biso   1.000  H
  C672     1.0000 0.55400  0.33530  0.66203  Biso   1.000  C
  H236     1.0000 0.60880  0.37800  0.66480  Biso   1.000  H
  C673     1.0000 0.27570  0.12250  0.67977  Biso   1.000  C
  C674     1.0000 0.21420  0.07750  0.69257  Biso   1.000  C
  H237     1.0000 0.22890  0.09020  0.70420  Biso   1.000  H
  C675     1.0000 0.13530  0.01710  0.68851  Biso   1.000  C
  H238     1.0000 0.09580  0.98800  0.69730  Biso   1.000  H
  C676     1.0000 0.62930  0.42230  0.78612  Biso   1.000  C
  C677     1.0000 0.55530  0.33440  0.81690  Biso   1.000  C
  C678     1.0000 0.55350  0.40040  0.79635  Biso   1.000  C
  C679     1.0000 0.69480  0.39890  0.79340  Biso   1.000  C
  C680     1.0000 0.59850  0.30470  0.81418  Biso   1.000  C
  Zn35     1.0000 0.20970  0.82122  0.09879  Biso   1.000  Zn
  O171     1.0000 0.09167  0.36643  0.06245  Biso   1.000  O
  O172     1.0000 0.13537  0.45123  0.08519  Biso   1.000  O
  O173     1.0000 0.11537  0.76093  0.05888  Biso   1.000  O
  O174     1.0000 0.15567  0.72193  0.08237  Biso   1.000  O
  O175     1.0000 0.25137  0.78653  0.11856  Biso   1.000  O
  N35      1.0000 0.27587  0.70321  0.13443  Biso   1.000  N
  C681     1.0000 0.08717  0.49153  0.06138  Biso   1.000  C
  C682     1.0000 0.10657  0.56643  0.06902  Biso   1.000  C
  H239     1.0000 0.12577  0.57703  0.08043  Biso   1.000  H
  C683     1.0000 0.09777  0.62593  0.05992  Biso   1.000  C
  C684     1.0000 0.06887  0.60993  0.04329  Biso   1.000  C
  H240     1.0000 0.06237  0.65053  0.03713  Biso   1.000  H
  C685     1.0000 0.04917  0.53473  0.03545  Biso   1.000  C
  C686     1.0000 0.05867  0.47563  0.04499  Biso   1.000  C
  H241     1.0000 0.04497  0.42363  0.03993  Biso   1.000  H
  C687     1.0000 0.10587  0.43093  0.07044  Biso   1.000  C
  C688     1.0000 0.12487  0.70933  0.06775  Biso   1.000  C
  C689     1.0000 0.02387  0.51883  0.01730  Biso   1.000  C
  C690     1.0000 0.08127  0.56303  0.00438  Biso   1.000  C
  C691     1.0000 0.16497  0.62643  0.00810  Biso   1.000  C
  H242     1.0000 0.18207  0.63943  0.01963  Biso   1.000  H
  C692     1.0000 0.22067  0.66863  0.99536  Biso   1.000  C
  H243     1.0000 0.27547  0.71133  0.99813  Biso   1.000  H
  C693     1.0000 0.94237  0.45583  0.01310  Biso   1.000  C
  C694     1.0000 0.88087  0.41083  0.02590  Biso   1.000  C
  H244     1.0000 0.89557  0.42353  0.03753  Biso   1.000  H
  C695     1.0000 0.80197  0.35043  0.02184  Biso   1.000  C
  H245     1.0000 0.76247  0.32133  0.03063  Biso   1.000  H
  C696     1.0000 0.29597  0.75563  0.11945  Biso   1.000  C
  C697     1.0000 0.22197  0.66773  0.15023  Biso   1.000  C
  C698     1.0000 0.22017  0.73373  0.12968  Biso   1.000  C
  C699     1.0000 0.36147  0.73223  0.12673  Biso   1.000  C
  C700     1.0000 0.26517  0.63803  0.14751  Biso   1.000  C
  Zn36     1.0000 0.87636  0.15456  0.43213  Biso   1.000  Zn
  O176     1.0000 0.75833  0.69977  0.39579  Biso   1.000  O
  O177     1.0000 0.80203  0.78457  0.41853  Biso   1.000  O
  O178     1.0000 0.78203  0.09427  0.39222  Biso   1.000  O
  O179     1.0000 0.82233  0.05527  0.41571  Biso   1.000  O
  O180     1.0000 0.91803  0.11987  0.45190  Biso   1.000  O
  N36      1.0000 0.94253  0.03655  0.46777  Biso   1.000  N
  C701     1.0000 0.75383  0.82487  0.39472  Biso   1.000  C
  C702     1.0000 0.77323  0.89977  0.40236  Biso   1.000  C
  H246     1.0000 0.79243  0.91037  0.41377  Biso   1.000  H
  C703     1.0000 0.76443  0.95927  0.39326  Biso   1.000  C
  C704     1.0000 0.73553  0.94327  0.37663  Biso   1.000  C
  H247     1.0000 0.72903  0.98387  0.37047  Biso   1.000  H
  C705     1.0000 0.71583  0.86807  0.36879  Biso   1.000  C
  C706     1.0000 0.72533  0.80897  0.37833  Biso   1.000  C
  H248     1.0000 0.71163  0.75697  0.37327  Biso   1.000  H
  C707     1.0000 0.77253  0.76427  0.40378  Biso   1.000  C
  C708     1.0000 0.79153  0.04267  0.40109  Biso   1.000  C
  C709     1.0000 0.69053  0.85217  0.35064  Biso   1.000  C
  C710     1.0000 0.74793  0.89637  0.33772  Biso   1.000  C
  C711     1.0000 0.83163  0.95977  0.34144  Biso   1.000  C
  H249     1.0000 0.84873  0.97277  0.35297  Biso   1.000  H
  C712     1.0000 0.88733  0.00197  0.32870  Biso   1.000  C
  H250     1.0000 0.94213  0.04467  0.33147  Biso   1.000  H
  C713     1.0000 0.60903  0.78917  0.34644  Biso   1.000  C
  C714     1.0000 0.54753  0.74417  0.35924  Biso   1.000  C
  H251     1.0000 0.56223  0.75687  0.37087  Biso   1.000  H
  C715     1.0000 0.46863  0.68377  0.35518  Biso   1.000  C
  H252     1.0000 0.42913  0.65467  0.36397  Biso   1.000  H
  C716     1.0000 0.96263  0.08897  0.45279  Biso   1.000  C
  C717     1.0000 0.88863  0.00107  0.48357  Biso   1.000  C
  C718     1.0000 0.88683  0.06707  0.46302  Biso   1.000  C
  C719     1.0000 0.02813  0.06557  0.46007  Biso   1.000  C
  C720     1.0000 0.93183  0.97137  0.48085  Biso   1.000  C
  C721     1.0000 0.66667  0.33333  0.30147  Biso   1.000  C
  C722     1.0000 0.33333  0.66667  0.63480  Biso   1.000  C
  C723     1.0000 0.00000  0.00000  0.96814  Biso   1.000  C
  C724     1.0000 0.33333  0.66667  0.19853  Biso   1.000  C
  C725     1.0000 0.00000  0.00000  0.53186  Biso   1.000  C
  C726     1.0000 0.66667  0.33333  0.86520  Biso   1.000  C
  C727     1.0000 0.33333  0.66667  0.69853  Biso   1.000  C
  C728     1.0000 0.00000  0.00000  0.03186  Biso   1.000  C
  C729     1.0000 0.66667  0.33333  0.36520  Biso   1.000  C
  C730     1.0000 0.66667  0.33333  0.80147  Biso   1.000  C
  C731     1.0000 0.33333  0.66667  0.13480  Biso   1.000  C
  C732     1.0000 0.00000  0.00000  0.46814  Biso   1.000  C
