data_image0
_cell_length_a       29.3187
_cell_length_b       29.3187
_cell_length_c       29.3187
_cell_angle_alpha    90
_cell_angle_beta     90
_cell_angle_gamma    90

_symmetry_space_group_name_H-M    "P 1"
_symmetry_int_tables_number       1

loop_
  _symmetry_equiv_pos_as_xyz
  'x, y, z'

loop_
  _atom_site_label
  _atom_site_occupancy
  _atom_site_fract_x
  _atom_site_fract_y
  _atom_site_fract_z
  _atom_site_thermal_displace_type
  _atom_site_B_iso_or_equiv
  _atom_site_type_symbol
  N1       1.0000 0.46230  0.11180  0.26200  Biso   1.000  N
  N2       1.0000 0.47707  0.12680  0.30260  Biso   1.000  N
  N3       1.0000 0.38060  0.14150  0.19440  Biso   1.000  N
  C1       1.0000 0.36480  0.12300  0.15550  Biso   1.000  C
  H1       1.0000 0.35540  0.09290  0.15170  Biso   1.000  H
  H2       1.0000 0.42580  0.23710  0.19800  Biso   1.000  H
  H3       1.0000 0.34360  0.24990  0.20790  Biso   1.000  H
  H4       1.0000 0.40370  0.25040  0.28770  Biso   1.000  H
  H5       1.0000 0.53090  0.08330  0.18420  Biso   1.000  H
  H6       1.0000 0.48430  0.10790  0.17510  Biso   1.000  H
  H7       1.0000 0.48480  0.05780  0.19360  Biso   1.000  H
  N4       1.0000 0.96230  0.61180  0.76200  Biso   1.000  N
  N5       1.0000 0.97707  0.62680  0.80260  Biso   1.000  N
  N6       1.0000 0.88060  0.64150  0.69440  Biso   1.000  N
  C2       1.0000 0.86480  0.62300  0.65550  Biso   1.000  C
  H8       1.0000 0.85540  0.59290  0.65170  Biso   1.000  H
  H9       1.0000 0.92580  0.73710  0.69800  Biso   1.000  H
  H10      1.0000 0.84360  0.74990  0.70790  Biso   1.000  H
  H11      1.0000 0.90370  0.75040  0.78770  Biso   1.000  H
  H12      1.0000 0.03090  0.58330  0.68420  Biso   1.000  H
  H13      1.0000 0.98430  0.60790  0.67510  Biso   1.000  H
  H14      1.0000 0.98480  0.55780  0.69360  Biso   1.000  H
  N7       1.0000 0.53770  0.88820  0.26200  Biso   1.000  N
  N8       1.0000 0.52293  0.87320  0.30260  Biso   1.000  N
  N9       1.0000 0.61940  0.85850  0.19440  Biso   1.000  N
  C3       1.0000 0.63520  0.87700  0.15550  Biso   1.000  C
  H15      1.0000 0.64460  0.90710  0.15170  Biso   1.000  H
  H16      1.0000 0.57420  0.76290  0.19800  Biso   1.000  H
  H17      1.0000 0.65640  0.75010  0.20790  Biso   1.000  H
  H18      1.0000 0.59630  0.74960  0.28770  Biso   1.000  H
  H19      1.0000 0.46910  0.91670  0.18420  Biso   1.000  H
  H20      1.0000 0.51570  0.89210  0.17510  Biso   1.000  H
  H21      1.0000 0.51520  0.94220  0.19360  Biso   1.000  H
  N10      1.0000 0.03770  0.38820  0.76200  Biso   1.000  N
  N11      1.0000 0.02293  0.37320  0.80260  Biso   1.000  N
  N12      1.0000 0.11940  0.35850  0.69440  Biso   1.000  N
  C4       1.0000 0.13520  0.37700  0.65550  Biso   1.000  C
  H22      1.0000 0.14460  0.40710  0.65170  Biso   1.000  H
  H23      1.0000 0.07420  0.26290  0.69800  Biso   1.000  H
  H24      1.0000 0.15640  0.25010  0.70790  Biso   1.000  H
  H25      1.0000 0.09630  0.24960  0.78770  Biso   1.000  H
  H26      1.0000 0.96910  0.41670  0.68420  Biso   1.000  H
  H27      1.0000 0.01570  0.39210  0.67510  Biso   1.000  H
  H28      1.0000 0.01520  0.44220  0.69360  Biso   1.000  H
  N13      1.0000 0.53770  0.11180  0.73800  Biso   1.000  N
  N14      1.0000 0.52293  0.12680  0.69740  Biso   1.000  N
  N15      1.0000 0.61940  0.14150  0.80560  Biso   1.000  N
  C5       1.0000 0.63520  0.12300  0.84450  Biso   1.000  C
  H29      1.0000 0.64460  0.09290  0.84830  Biso   1.000  H
  H30      1.0000 0.57420  0.23710  0.80200  Biso   1.000  H
  H31      1.0000 0.65640  0.24990  0.79210  Biso   1.000  H
  H32      1.0000 0.59630  0.25040  0.71230  Biso   1.000  H
  H33      1.0000 0.46910  0.08330  0.81580  Biso   1.000  H
  H34      1.0000 0.51570  0.10790  0.82490  Biso   1.000  H
  H35      1.0000 0.51520  0.05780  0.80640  Biso   1.000  H
  N16      1.0000 0.03770  0.61180  0.23800  Biso   1.000  N
  N17      1.0000 0.02293  0.62680  0.19740  Biso   1.000  N
  N18      1.0000 0.11940  0.64150  0.30560  Biso   1.000  N
  C6       1.0000 0.13520  0.62300  0.34450  Biso   1.000  C
  H36      1.0000 0.14460  0.59290  0.34830  Biso   1.000  H
  H37      1.0000 0.07420  0.73710  0.30200  Biso   1.000  H
  H38      1.0000 0.15640  0.74990  0.29210  Biso   1.000  H
  H39      1.0000 0.09630  0.75040  0.21230  Biso   1.000  H
  H40      1.0000 0.96910  0.58330  0.31580  Biso   1.000  H
  H41      1.0000 0.01570  0.60790  0.32490  Biso   1.000  H
  H42      1.0000 0.01520  0.55780  0.30640  Biso   1.000  H
  N19      1.0000 0.46230  0.88820  0.73800  Biso   1.000  N
  N20      1.0000 0.47707  0.87320  0.69740  Biso   1.000  N
  N21      1.0000 0.38060  0.85850  0.80560  Biso   1.000  N
  C7       1.0000 0.36480  0.87700  0.84450  Biso   1.000  C
  H43      1.0000 0.35540  0.90710  0.84830  Biso   1.000  H
  H44      1.0000 0.42580  0.76290  0.80200  Biso   1.000  H
  H45      1.0000 0.34360  0.75010  0.79210  Biso   1.000  H
  H46      1.0000 0.40370  0.74960  0.71230  Biso   1.000  H
  H47      1.0000 0.53090  0.91670  0.81580  Biso   1.000  H
  H48      1.0000 0.48430  0.89210  0.82490  Biso   1.000  H
  H49      1.0000 0.48480  0.94220  0.80640  Biso   1.000  H
  N22      1.0000 0.96230  0.38820  0.23800  Biso   1.000  N
  N23      1.0000 0.97707  0.37320  0.19740  Biso   1.000  N
  N24      1.0000 0.88060  0.35850  0.30560  Biso   1.000  N
  C8       1.0000 0.86480  0.37700  0.34450  Biso   1.000  C
  H50      1.0000 0.85540  0.40710  0.34830  Biso   1.000  H
  H51      1.0000 0.92580  0.26290  0.30200  Biso   1.000  H
  H52      1.0000 0.84360  0.25010  0.29210  Biso   1.000  H
  H53      1.0000 0.90370  0.24960  0.21230  Biso   1.000  H
  H54      1.0000 0.03090  0.41670  0.31580  Biso   1.000  H
  H55      1.0000 0.98430  0.39210  0.32490  Biso   1.000  H
  H56      1.0000 0.98480  0.44220  0.30640  Biso   1.000  H
  N25      1.0000 0.26200  0.46230  0.11180  Biso   1.000  N
  N26      1.0000 0.30260  0.47707  0.12680  Biso   1.000  N
  N27      1.0000 0.19440  0.38060  0.14150  Biso   1.000  N
  C9       1.0000 0.15550  0.36480  0.12300  Biso   1.000  C
  H57      1.0000 0.15170  0.35540  0.09290  Biso   1.000  H
  H58      1.0000 0.19800  0.42580  0.23710  Biso   1.000  H
  H59      1.0000 0.20790  0.34360  0.24990  Biso   1.000  H
  H60      1.0000 0.28770  0.40370  0.25040  Biso   1.000  H
  H61      1.0000 0.18420  0.53090  0.08330  Biso   1.000  H
  H62      1.0000 0.17510  0.48430  0.10790  Biso   1.000  H
  H63      1.0000 0.19360  0.48480  0.05780  Biso   1.000  H
  N28      1.0000 0.76200  0.96230  0.61180  Biso   1.000  N
  N29      1.0000 0.80260  0.97707  0.62680  Biso   1.000  N
  N30      1.0000 0.69440  0.88060  0.64150  Biso   1.000  N
  C10      1.0000 0.65550  0.86480  0.62300  Biso   1.000  C
  H64      1.0000 0.65170  0.85540  0.59290  Biso   1.000  H
  H65      1.0000 0.69800  0.92580  0.73710  Biso   1.000  H
  H66      1.0000 0.70790  0.84360  0.74990  Biso   1.000  H
  H67      1.0000 0.78770  0.90370  0.75040  Biso   1.000  H
  H68      1.0000 0.68420  0.03090  0.58330  Biso   1.000  H
  H69      1.0000 0.67510  0.98430  0.60790  Biso   1.000  H
  H70      1.0000 0.69360  0.98480  0.55780  Biso   1.000  H
  N31      1.0000 0.26200  0.53770  0.88820  Biso   1.000  N
  N32      1.0000 0.30260  0.52293  0.87320  Biso   1.000  N
  N33      1.0000 0.19440  0.61940  0.85850  Biso   1.000  N
  C11      1.0000 0.15550  0.63520  0.87700  Biso   1.000  C
  H71      1.0000 0.15170  0.64460  0.90710  Biso   1.000  H
  H72      1.0000 0.19800  0.57420  0.76290  Biso   1.000  H
  H73      1.0000 0.20790  0.65640  0.75010  Biso   1.000  H
  H74      1.0000 0.28770  0.59630  0.74960  Biso   1.000  H
  H75      1.0000 0.18420  0.46910  0.91670  Biso   1.000  H
  H76      1.0000 0.17510  0.51570  0.89210  Biso   1.000  H
  H77      1.0000 0.19360  0.51520  0.94220  Biso   1.000  H
  N34      1.0000 0.76200  0.03770  0.38820  Biso   1.000  N
  N35      1.0000 0.80260  0.02293  0.37320  Biso   1.000  N
  N36      1.0000 0.69440  0.11940  0.35850  Biso   1.000  N
  C12      1.0000 0.65550  0.13520  0.37700  Biso   1.000  C
  H78      1.0000 0.65170  0.14460  0.40710  Biso   1.000  H
  H79      1.0000 0.69800  0.07420  0.26290  Biso   1.000  H
  H80      1.0000 0.70790  0.15640  0.25010  Biso   1.000  H
  H81      1.0000 0.78770  0.09630  0.24960  Biso   1.000  H
  H82      1.0000 0.68420  0.96910  0.41670  Biso   1.000  H
  H83      1.0000 0.67510  0.01570  0.39210  Biso   1.000  H
  H84      1.0000 0.69360  0.01520  0.44220  Biso   1.000  H
  N37      1.0000 0.73800  0.53770  0.11180  Biso   1.000  N
  N38      1.0000 0.69740  0.52293  0.12680  Biso   1.000  N
  N39      1.0000 0.80560  0.61940  0.14150  Biso   1.000  N
  C13      1.0000 0.84450  0.63520  0.12300  Biso   1.000  C
  H85      1.0000 0.84830  0.64460  0.09290  Biso   1.000  H
  H86      1.0000 0.80200  0.57420  0.23710  Biso   1.000  H
  H87      1.0000 0.79210  0.65640  0.24990  Biso   1.000  H
  H88      1.0000 0.71230  0.59630  0.25040  Biso   1.000  H
  H89      1.0000 0.81580  0.46910  0.08330  Biso   1.000  H
  H90      1.0000 0.82490  0.51570  0.10790  Biso   1.000  H
  H91      1.0000 0.80640  0.51520  0.05780  Biso   1.000  H
  N40      1.0000 0.23800  0.03770  0.61180  Biso   1.000  N
  N41      1.0000 0.19740  0.02293  0.62680  Biso   1.000  N
  N42      1.0000 0.30560  0.11940  0.64150  Biso   1.000  N
  C14      1.0000 0.34450  0.13520  0.62300  Biso   1.000  C
  H92      1.0000 0.34830  0.14460  0.59290  Biso   1.000  H
  H93      1.0000 0.30200  0.07420  0.73710  Biso   1.000  H
  H94      1.0000 0.29210  0.15640  0.74990  Biso   1.000  H
  H95      1.0000 0.21230  0.09630  0.75040  Biso   1.000  H
  H96      1.0000 0.31580  0.96910  0.58330  Biso   1.000  H
  H97      1.0000 0.32490  0.01570  0.60790  Biso   1.000  H
  H98      1.0000 0.30640  0.01520  0.55780  Biso   1.000  H
  N43      1.0000 0.73800  0.46230  0.88820  Biso   1.000  N
  N44      1.0000 0.69740  0.47707  0.87320  Biso   1.000  N
  N45      1.0000 0.80560  0.38060  0.85850  Biso   1.000  N
  C15      1.0000 0.84450  0.36480  0.87700  Biso   1.000  C
  H99      1.0000 0.84830  0.35540  0.90710  Biso   1.000  H
  H100     1.0000 0.80200  0.42580  0.76290  Biso   1.000  H
  H101     1.0000 0.79210  0.34360  0.75010  Biso   1.000  H
  H102     1.0000 0.71230  0.40370  0.74960  Biso   1.000  H
  H103     1.0000 0.81580  0.53090  0.91670  Biso   1.000  H
  H104     1.0000 0.82490  0.48430  0.89210  Biso   1.000  H
  H105     1.0000 0.80640  0.48480  0.94220  Biso   1.000  H
  N46      1.0000 0.23800  0.96230  0.38820  Biso   1.000  N
  N47      1.0000 0.19740  0.97707  0.37320  Biso   1.000  N
  N48      1.0000 0.30560  0.88060  0.35850  Biso   1.000  N
  C16      1.0000 0.34450  0.86480  0.37700  Biso   1.000  C
  H106     1.0000 0.34830  0.85540  0.40710  Biso   1.000  H
  H107     1.0000 0.30200  0.92580  0.26290  Biso   1.000  H
  H108     1.0000 0.29210  0.84360  0.25010  Biso   1.000  H
  H109     1.0000 0.21230  0.90370  0.24960  Biso   1.000  H
  H110     1.0000 0.31580  0.03090  0.41670  Biso   1.000  H
  H111     1.0000 0.32490  0.98430  0.39210  Biso   1.000  H
  H112     1.0000 0.30640  0.98480  0.44220  Biso   1.000  H
  N49      1.0000 0.11180  0.26200  0.46230  Biso   1.000  N
  N50      1.0000 0.12680  0.30260  0.47707  Biso   1.000  N
  N51      1.0000 0.14150  0.19440  0.38060  Biso   1.000  N
  C17      1.0000 0.12300  0.15550  0.36480  Biso   1.000  C
  H113     1.0000 0.09290  0.15170  0.35540  Biso   1.000  H
  H114     1.0000 0.23710  0.19800  0.42580  Biso   1.000  H
  H115     1.0000 0.24990  0.20790  0.34360  Biso   1.000  H
  H116     1.0000 0.25040  0.28770  0.40370  Biso   1.000  H
  H117     1.0000 0.08330  0.18420  0.53090  Biso   1.000  H
  H118     1.0000 0.10790  0.17510  0.48430  Biso   1.000  H
  H119     1.0000 0.05780  0.19360  0.48480  Biso   1.000  H
  N52      1.0000 0.61180  0.76200  0.96230  Biso   1.000  N
  N53      1.0000 0.62680  0.80260  0.97707  Biso   1.000  N
  N54      1.0000 0.64150  0.69440  0.88060  Biso   1.000  N
  C18      1.0000 0.62300  0.65550  0.86480  Biso   1.000  C
  H120     1.0000 0.59290  0.65170  0.85540  Biso   1.000  H
  H121     1.0000 0.73710  0.69800  0.92580  Biso   1.000  H
  H122     1.0000 0.74990  0.70790  0.84360  Biso   1.000  H
  H123     1.0000 0.75040  0.78770  0.90370  Biso   1.000  H
  H124     1.0000 0.58330  0.68420  0.03090  Biso   1.000  H
  H125     1.0000 0.60790  0.67510  0.98430  Biso   1.000  H
  H126     1.0000 0.55780  0.69360  0.98480  Biso   1.000  H
  N55      1.0000 0.88820  0.26200  0.53770  Biso   1.000  N
  N56      1.0000 0.87320  0.30260  0.52293  Biso   1.000  N
  N57      1.0000 0.85850  0.19440  0.61940  Biso   1.000  N
  C19      1.0000 0.87700  0.15550  0.63520  Biso   1.000  C
  H127     1.0000 0.90710  0.15170  0.64460  Biso   1.000  H
  H128     1.0000 0.76290  0.19800  0.57420  Biso   1.000  H
  H129     1.0000 0.75010  0.20790  0.65640  Biso   1.000  H
  H130     1.0000 0.74960  0.28770  0.59630  Biso   1.000  H
  H131     1.0000 0.91670  0.18420  0.46910  Biso   1.000  H
  H132     1.0000 0.89210  0.17510  0.51570  Biso   1.000  H
  H133     1.0000 0.94220  0.19360  0.51520  Biso   1.000  H
  N58      1.0000 0.38820  0.76200  0.03770  Biso   1.000  N
  N59      1.0000 0.37320  0.80260  0.02293  Biso   1.000  N
  N60      1.0000 0.35850  0.69440  0.11940  Biso   1.000  N
  C20      1.0000 0.37700  0.65550  0.13520  Biso   1.000  C
  H134     1.0000 0.40710  0.65170  0.14460  Biso   1.000  H
  H135     1.0000 0.26290  0.69800  0.07420  Biso   1.000  H
  H136     1.0000 0.25010  0.70790  0.15640  Biso   1.000  H
  H137     1.0000 0.24960  0.78770  0.09630  Biso   1.000  H
  H138     1.0000 0.41670  0.68420  0.96910  Biso   1.000  H
  H139     1.0000 0.39210  0.67510  0.01570  Biso   1.000  H
  H140     1.0000 0.44220  0.69360  0.01520  Biso   1.000  H
  N61      1.0000 0.11180  0.73800  0.53770  Biso   1.000  N
  N62      1.0000 0.12680  0.69740  0.52293  Biso   1.000  N
  N63      1.0000 0.14150  0.80560  0.61940  Biso   1.000  N
  C21      1.0000 0.12300  0.84450  0.63520  Biso   1.000  C
  H141     1.0000 0.09290  0.84830  0.64460  Biso   1.000  H
  H142     1.0000 0.23710  0.80200  0.57420  Biso   1.000  H
  H143     1.0000 0.24990  0.79210  0.65640  Biso   1.000  H
  H144     1.0000 0.25040  0.71230  0.59630  Biso   1.000  H
  H145     1.0000 0.08330  0.81580  0.46910  Biso   1.000  H
  H146     1.0000 0.10790  0.82490  0.51570  Biso   1.000  H
  H147     1.0000 0.05780  0.80640  0.51520  Biso   1.000  H
  N64      1.0000 0.61180  0.23800  0.03770  Biso   1.000  N
  N65      1.0000 0.62680  0.19740  0.02293  Biso   1.000  N
  N66      1.0000 0.64150  0.30560  0.11940  Biso   1.000  N
  C22      1.0000 0.62300  0.34450  0.13520  Biso   1.000  C
  H148     1.0000 0.59290  0.34830  0.14460  Biso   1.000  H
  H149     1.0000 0.73710  0.30200  0.07420  Biso   1.000  H
  H150     1.0000 0.74990  0.29210  0.15640  Biso   1.000  H
  H151     1.0000 0.75040  0.21230  0.09630  Biso   1.000  H
  H152     1.0000 0.58330  0.31580  0.96910  Biso   1.000  H
  H153     1.0000 0.60790  0.32490  0.01570  Biso   1.000  H
  H154     1.0000 0.55780  0.30640  0.01520  Biso   1.000  H
  N67      1.0000 0.88820  0.73800  0.46230  Biso   1.000  N
  N68      1.0000 0.87320  0.69740  0.47707  Biso   1.000  N
  N69      1.0000 0.85850  0.80560  0.38060  Biso   1.000  N
  C23      1.0000 0.87700  0.84450  0.36480  Biso   1.000  C
  H155     1.0000 0.90710  0.84830  0.35540  Biso   1.000  H
  H156     1.0000 0.76290  0.80200  0.42580  Biso   1.000  H
  H157     1.0000 0.75010  0.79210  0.34360  Biso   1.000  H
  H158     1.0000 0.74960  0.71230  0.40370  Biso   1.000  H
  H159     1.0000 0.91670  0.81580  0.53090  Biso   1.000  H
  H160     1.0000 0.89210  0.82490  0.48430  Biso   1.000  H
  H161     1.0000 0.94220  0.80640  0.48480  Biso   1.000  H
  N70      1.0000 0.38820  0.23800  0.96230  Biso   1.000  N
  N71      1.0000 0.37320  0.19740  0.97707  Biso   1.000  N
  N72      1.0000 0.35850  0.30560  0.88060  Biso   1.000  N
  C24      1.0000 0.37700  0.34450  0.86480  Biso   1.000  C
  H162     1.0000 0.40710  0.34830  0.85540  Biso   1.000  H
  H163     1.0000 0.26290  0.30200  0.92580  Biso   1.000  H
  H164     1.0000 0.25010  0.29210  0.84360  Biso   1.000  H
  H165     1.0000 0.24960  0.21230  0.90370  Biso   1.000  H
  H166     1.0000 0.41670  0.31580  0.03090  Biso   1.000  H
  H167     1.0000 0.39210  0.32490  0.98430  Biso   1.000  H
  H168     1.0000 0.44220  0.30640  0.98480  Biso   1.000  H
  N73      1.0000 0.11180  0.46230  0.73800  Biso   1.000  N
  N74      1.0000 0.12680  0.47707  0.69740  Biso   1.000  N
  N75      1.0000 0.14150  0.38060  0.80560  Biso   1.000  N
  C25      1.0000 0.12300  0.36480  0.84450  Biso   1.000  C
  H169     1.0000 0.09290  0.35540  0.84830  Biso   1.000  H
  H170     1.0000 0.23710  0.42580  0.80200  Biso   1.000  H
  H171     1.0000 0.24990  0.34360  0.79210  Biso   1.000  H
  H172     1.0000 0.25040  0.40370  0.71230  Biso   1.000  H
  H173     1.0000 0.08330  0.53090  0.81580  Biso   1.000  H
  H174     1.0000 0.10790  0.48430  0.82490  Biso   1.000  H
  H175     1.0000 0.05780  0.48480  0.80640  Biso   1.000  H
  N76      1.0000 0.61180  0.96230  0.23800  Biso   1.000  N
  N77      1.0000 0.62680  0.97707  0.19740  Biso   1.000  N
  N78      1.0000 0.64150  0.88060  0.30560  Biso   1.000  N
  C26      1.0000 0.62300  0.86480  0.34450  Biso   1.000  C
  H176     1.0000 0.59290  0.85540  0.34830  Biso   1.000  H
  H177     1.0000 0.73710  0.92580  0.30200  Biso   1.000  H
  H178     1.0000 0.74990  0.84360  0.29210  Biso   1.000  H
  H179     1.0000 0.75040  0.90370  0.21230  Biso   1.000  H
  H180     1.0000 0.58330  0.03090  0.31580  Biso   1.000  H
  H181     1.0000 0.60790  0.98430  0.32490  Biso   1.000  H
  H182     1.0000 0.55780  0.98480  0.30640  Biso   1.000  H
  N79      1.0000 0.88820  0.53770  0.73800  Biso   1.000  N
  N80      1.0000 0.87320  0.52293  0.69740  Biso   1.000  N
  N81      1.0000 0.85850  0.61940  0.80560  Biso   1.000  N
  C27      1.0000 0.87700  0.63520  0.84450  Biso   1.000  C
  H183     1.0000 0.90710  0.64460  0.84830  Biso   1.000  H
  H184     1.0000 0.76290  0.57420  0.80200  Biso   1.000  H
  H185     1.0000 0.75010  0.65640  0.79210  Biso   1.000  H
  H186     1.0000 0.74960  0.59630  0.71230  Biso   1.000  H
  H187     1.0000 0.91670  0.46910  0.81580  Biso   1.000  H
  H188     1.0000 0.89210  0.51570  0.82490  Biso   1.000  H
  H189     1.0000 0.94220  0.51520  0.80640  Biso   1.000  H
  N82      1.0000 0.38820  0.03770  0.23800  Biso   1.000  N
  N83      1.0000 0.37320  0.02293  0.19740  Biso   1.000  N
  N84      1.0000 0.35850  0.11940  0.30560  Biso   1.000  N
  C28      1.0000 0.37700  0.13520  0.34450  Biso   1.000  C
  H190     1.0000 0.40710  0.14460  0.34830  Biso   1.000  H
  H191     1.0000 0.26290  0.07420  0.30200  Biso   1.000  H
  H192     1.0000 0.25010  0.15640  0.29210  Biso   1.000  H
  H193     1.0000 0.24960  0.09630  0.21230  Biso   1.000  H
  H194     1.0000 0.41670  0.96910  0.31580  Biso   1.000  H
  H195     1.0000 0.39210  0.01570  0.32490  Biso   1.000  H
  H196     1.0000 0.44220  0.01520  0.30640  Biso   1.000  H
  N85      1.0000 0.11180  0.53770  0.26200  Biso   1.000  N
  N86      1.0000 0.12680  0.52293  0.30260  Biso   1.000  N
  N87      1.0000 0.14150  0.61940  0.19440  Biso   1.000  N
  C29      1.0000 0.12300  0.63520  0.15550  Biso   1.000  C
  H197     1.0000 0.09290  0.64460  0.15170  Biso   1.000  H
  H198     1.0000 0.23710  0.57420  0.19800  Biso   1.000  H
  H199     1.0000 0.24990  0.65640  0.20790  Biso   1.000  H
  H200     1.0000 0.25040  0.59630  0.28770  Biso   1.000  H
  H201     1.0000 0.08330  0.46910  0.18420  Biso   1.000  H
  H202     1.0000 0.10790  0.51570  0.17510  Biso   1.000  H
  H203     1.0000 0.05780  0.51520  0.19360  Biso   1.000  H
  N88      1.0000 0.61180  0.03770  0.76200  Biso   1.000  N
  N89      1.0000 0.62680  0.02293  0.80260  Biso   1.000  N
  N90      1.0000 0.64150  0.11940  0.69440  Biso   1.000  N
  C30      1.0000 0.62300  0.13520  0.65550  Biso   1.000  C
  H204     1.0000 0.59290  0.14460  0.65170  Biso   1.000  H
  H205     1.0000 0.73710  0.07420  0.69800  Biso   1.000  H
  H206     1.0000 0.74990  0.15640  0.70790  Biso   1.000  H
  H207     1.0000 0.75040  0.09630  0.78770  Biso   1.000  H
  H208     1.0000 0.58330  0.96910  0.68420  Biso   1.000  H
  H209     1.0000 0.60790  0.01570  0.67510  Biso   1.000  H
  H210     1.0000 0.55780  0.01520  0.69360  Biso   1.000  H
  N91      1.0000 0.88820  0.46230  0.26200  Biso   1.000  N
  N92      1.0000 0.87320  0.47707  0.30260  Biso   1.000  N
  N93      1.0000 0.85850  0.38060  0.19440  Biso   1.000  N
  C31      1.0000 0.87700  0.36480  0.15550  Biso   1.000  C
  H211     1.0000 0.90710  0.35540  0.15170  Biso   1.000  H
  H212     1.0000 0.76290  0.42580  0.19800  Biso   1.000  H
  H213     1.0000 0.75010  0.34360  0.20790  Biso   1.000  H
  H214     1.0000 0.74960  0.40370  0.28770  Biso   1.000  H
  H215     1.0000 0.91670  0.53090  0.18420  Biso   1.000  H
  H216     1.0000 0.89210  0.48430  0.17510  Biso   1.000  H
  H217     1.0000 0.94220  0.48480  0.19360  Biso   1.000  H
  N94      1.0000 0.38820  0.96230  0.76200  Biso   1.000  N
  N95      1.0000 0.37320  0.97707  0.80260  Biso   1.000  N
  N96      1.0000 0.35850  0.88060  0.69440  Biso   1.000  N
  C32      1.0000 0.37700  0.86480  0.65550  Biso   1.000  C
  H218     1.0000 0.40710  0.85540  0.65170  Biso   1.000  H
  H219     1.0000 0.26290  0.92580  0.69800  Biso   1.000  H
  H220     1.0000 0.25010  0.84360  0.70790  Biso   1.000  H
  H221     1.0000 0.24960  0.90370  0.78770  Biso   1.000  H
  H222     1.0000 0.41670  0.03090  0.68420  Biso   1.000  H
  H223     1.0000 0.39210  0.98430  0.67510  Biso   1.000  H
  H224     1.0000 0.44220  0.98480  0.69360  Biso   1.000  H
  N97      1.0000 0.46230  0.26200  0.88820  Biso   1.000  N
  N98      1.0000 0.47707  0.30260  0.87320  Biso   1.000  N
  N99      1.0000 0.38060  0.19440  0.85850  Biso   1.000  N
  C33      1.0000 0.36480  0.15550  0.87700  Biso   1.000  C
  H225     1.0000 0.35540  0.15170  0.90710  Biso   1.000  H
  H226     1.0000 0.42580  0.19800  0.76290  Biso   1.000  H
  H227     1.0000 0.34360  0.20790  0.75010  Biso   1.000  H
  H228     1.0000 0.40370  0.28770  0.74960  Biso   1.000  H
  H229     1.0000 0.53090  0.18420  0.91670  Biso   1.000  H
  H230     1.0000 0.48430  0.17510  0.89210  Biso   1.000  H
  H231     1.0000 0.48480  0.19360  0.94220  Biso   1.000  H
  N100     1.0000 0.96230  0.76200  0.38820  Biso   1.000  N
  N101     1.0000 0.97707  0.80260  0.37320  Biso   1.000  N
  N102     1.0000 0.88060  0.69440  0.35850  Biso   1.000  N
  C34      1.0000 0.86480  0.65550  0.37700  Biso   1.000  C
  H232     1.0000 0.85540  0.65170  0.40710  Biso   1.000  H
  H233     1.0000 0.92580  0.69800  0.26290  Biso   1.000  H
  H234     1.0000 0.84360  0.70790  0.25010  Biso   1.000  H
  H235     1.0000 0.90370  0.78770  0.24960  Biso   1.000  H
  H236     1.0000 0.03090  0.68420  0.41670  Biso   1.000  H
  H237     1.0000 0.98430  0.67510  0.39210  Biso   1.000  H
  H238     1.0000 0.98480  0.69360  0.44220  Biso   1.000  H
  N103     1.0000 0.53770  0.26200  0.11180  Biso   1.000  N
  N104     1.0000 0.52293  0.30260  0.12680  Biso   1.000  N
  N105     1.0000 0.61940  0.19440  0.14150  Biso   1.000  N
  C35      1.0000 0.63520  0.15550  0.12300  Biso   1.000  C
  H239     1.0000 0.64460  0.15170  0.09290  Biso   1.000  H
  H240     1.0000 0.57420  0.19800  0.23710  Biso   1.000  H
  H241     1.0000 0.65640  0.20790  0.24990  Biso   1.000  H
  H242     1.0000 0.59630  0.28770  0.25040  Biso   1.000  H
  H243     1.0000 0.46910  0.18420  0.08330  Biso   1.000  H
  H244     1.0000 0.51570  0.17510  0.10790  Biso   1.000  H
  H245     1.0000 0.51520  0.19360  0.05780  Biso   1.000  H
  N106     1.0000 0.03770  0.76200  0.61180  Biso   1.000  N
  N107     1.0000 0.02293  0.80260  0.62680  Biso   1.000  N
  N108     1.0000 0.11940  0.69440  0.64150  Biso   1.000  N
  C36      1.0000 0.13520  0.65550  0.62300  Biso   1.000  C
  H246     1.0000 0.14460  0.65170  0.59290  Biso   1.000  H
  H247     1.0000 0.07420  0.69800  0.73710  Biso   1.000  H
  H248     1.0000 0.15640  0.70790  0.74990  Biso   1.000  H
  H249     1.0000 0.09630  0.78770  0.75040  Biso   1.000  H
  H250     1.0000 0.96910  0.68420  0.58330  Biso   1.000  H
  H251     1.0000 0.01570  0.67510  0.60790  Biso   1.000  H
  H252     1.0000 0.01520  0.69360  0.55780  Biso   1.000  H
  N109     1.0000 0.53770  0.73800  0.88820  Biso   1.000  N
  N110     1.0000 0.52293  0.69740  0.87320  Biso   1.000  N
  N111     1.0000 0.61940  0.80560  0.85850  Biso   1.000  N
  C37      1.0000 0.63520  0.84450  0.87700  Biso   1.000  C
  H253     1.0000 0.64460  0.84830  0.90710  Biso   1.000  H
  H254     1.0000 0.57420  0.80200  0.76290  Biso   1.000  H
  H255     1.0000 0.65640  0.79210  0.75010  Biso   1.000  H
  H256     1.0000 0.59630  0.71230  0.74960  Biso   1.000  H
  H257     1.0000 0.46910  0.81580  0.91670  Biso   1.000  H
  H258     1.0000 0.51570  0.82490  0.89210  Biso   1.000  H
  H259     1.0000 0.51520  0.80640  0.94220  Biso   1.000  H
  N112     1.0000 0.03770  0.23800  0.38820  Biso   1.000  N
  N113     1.0000 0.02293  0.19740  0.37320  Biso   1.000  N
  N114     1.0000 0.11940  0.30560  0.35850  Biso   1.000  N
  C38      1.0000 0.13520  0.34450  0.37700  Biso   1.000  C
  H260     1.0000 0.14460  0.34830  0.40710  Biso   1.000  H
  H261     1.0000 0.07420  0.30200  0.26290  Biso   1.000  H
  H262     1.0000 0.15640  0.29210  0.25010  Biso   1.000  H
  H263     1.0000 0.09630  0.21230  0.24960  Biso   1.000  H
  H264     1.0000 0.96910  0.31580  0.41670  Biso   1.000  H
  H265     1.0000 0.01570  0.32490  0.39210  Biso   1.000  H
  H266     1.0000 0.01520  0.30640  0.44220  Biso   1.000  H
  N115     1.0000 0.46230  0.73800  0.11180  Biso   1.000  N
  N116     1.0000 0.47707  0.69740  0.12680  Biso   1.000  N
  N117     1.0000 0.38060  0.80560  0.14150  Biso   1.000  N
  C39      1.0000 0.36480  0.84450  0.12300  Biso   1.000  C
  H267     1.0000 0.35540  0.84830  0.09290  Biso   1.000  H
  H268     1.0000 0.42580  0.80200  0.23710  Biso   1.000  H
  H269     1.0000 0.34360  0.79210  0.24990  Biso   1.000  H
  H270     1.0000 0.40370  0.71230  0.25040  Biso   1.000  H
  H271     1.0000 0.53090  0.81580  0.08330  Biso   1.000  H
  H272     1.0000 0.48430  0.82490  0.10790  Biso   1.000  H
  H273     1.0000 0.48480  0.80640  0.05780  Biso   1.000  H
  N118     1.0000 0.96230  0.23800  0.61180  Biso   1.000  N
  N119     1.0000 0.97707  0.19740  0.62680  Biso   1.000  N
  N120     1.0000 0.88060  0.30560  0.64150  Biso   1.000  N
  C40      1.0000 0.86480  0.34450  0.62300  Biso   1.000  C
  H274     1.0000 0.85540  0.34830  0.59290  Biso   1.000  H
  H275     1.0000 0.92580  0.30200  0.73710  Biso   1.000  H
  H276     1.0000 0.84360  0.29210  0.74990  Biso   1.000  H
  H277     1.0000 0.90370  0.21230  0.75040  Biso   1.000  H
  H278     1.0000 0.03090  0.31580  0.58330  Biso   1.000  H
  H279     1.0000 0.98430  0.32490  0.60790  Biso   1.000  H
  H280     1.0000 0.98480  0.30640  0.55780  Biso   1.000  H
  N121     1.0000 0.26200  0.11180  0.53770  Biso   1.000  N
  N122     1.0000 0.30260  0.12680  0.52293  Biso   1.000  N
  N123     1.0000 0.19440  0.14150  0.61940  Biso   1.000  N
  C41      1.0000 0.15550  0.12300  0.63520  Biso   1.000  C
  H281     1.0000 0.15170  0.09290  0.64460  Biso   1.000  H
  H282     1.0000 0.19800  0.23710  0.57420  Biso   1.000  H
  H283     1.0000 0.20790  0.24990  0.65640  Biso   1.000  H
  H284     1.0000 0.28770  0.25040  0.59630  Biso   1.000  H
  H285     1.0000 0.18420  0.08330  0.46910  Biso   1.000  H
  H286     1.0000 0.17510  0.10790  0.51570  Biso   1.000  H
  H287     1.0000 0.19360  0.05780  0.51520  Biso   1.000  H
  N124     1.0000 0.76200  0.61180  0.03770  Biso   1.000  N
  N125     1.0000 0.80260  0.62680  0.02293  Biso   1.000  N
  N126     1.0000 0.69440  0.64150  0.11940  Biso   1.000  N
  C42      1.0000 0.65550  0.62300  0.13520  Biso   1.000  C
  H288     1.0000 0.65170  0.59290  0.14460  Biso   1.000  H
  H289     1.0000 0.69800  0.73710  0.07420  Biso   1.000  H
  H290     1.0000 0.70790  0.74990  0.15640  Biso   1.000  H
  H291     1.0000 0.78770  0.75040  0.09630  Biso   1.000  H
  H292     1.0000 0.68420  0.58330  0.96910  Biso   1.000  H
  H293     1.0000 0.67510  0.60790  0.01570  Biso   1.000  H
  H294     1.0000 0.69360  0.55780  0.01520  Biso   1.000  H
  N127     1.0000 0.26200  0.88820  0.46230  Biso   1.000  N
  N128     1.0000 0.30260  0.87320  0.47707  Biso   1.000  N
  N129     1.0000 0.19440  0.85850  0.38060  Biso   1.000  N
  C43      1.0000 0.15550  0.87700  0.36480  Biso   1.000  C
  H295     1.0000 0.15170  0.90710  0.35540  Biso   1.000  H
  H296     1.0000 0.19800  0.76290  0.42580  Biso   1.000  H
  H297     1.0000 0.20790  0.75010  0.34360  Biso   1.000  H
  H298     1.0000 0.28770  0.74960  0.40370  Biso   1.000  H
  H299     1.0000 0.18420  0.91670  0.53090  Biso   1.000  H
  H300     1.0000 0.17510  0.89210  0.48430  Biso   1.000  H
  H301     1.0000 0.19360  0.94220  0.48480  Biso   1.000  H
  N130     1.0000 0.76200  0.38820  0.96230  Biso   1.000  N
  N131     1.0000 0.80260  0.37320  0.97707  Biso   1.000  N
  N132     1.0000 0.69440  0.35850  0.88060  Biso   1.000  N
  C44      1.0000 0.65550  0.37700  0.86480  Biso   1.000  C
  H302     1.0000 0.65170  0.40710  0.85540  Biso   1.000  H
  H303     1.0000 0.69800  0.26290  0.92580  Biso   1.000  H
  H304     1.0000 0.70790  0.25010  0.84360  Biso   1.000  H
  H305     1.0000 0.78770  0.24960  0.90370  Biso   1.000  H
  H306     1.0000 0.68420  0.41670  0.03090  Biso   1.000  H
  H307     1.0000 0.67510  0.39210  0.98430  Biso   1.000  H
  H308     1.0000 0.69360  0.44220  0.98480  Biso   1.000  H
  N133     1.0000 0.73800  0.11180  0.46230  Biso   1.000  N
  N134     1.0000 0.69740  0.12680  0.47707  Biso   1.000  N
  N135     1.0000 0.80560  0.14150  0.38060  Biso   1.000  N
  C45      1.0000 0.84450  0.12300  0.36480  Biso   1.000  C
  H309     1.0000 0.84830  0.09290  0.35540  Biso   1.000  H
  H310     1.0000 0.80200  0.23710  0.42580  Biso   1.000  H
  H311     1.0000 0.79210  0.24990  0.34360  Biso   1.000  H
  H312     1.0000 0.71230  0.25040  0.40370  Biso   1.000  H
  H313     1.0000 0.81580  0.08330  0.53090  Biso   1.000  H
  H314     1.0000 0.82490  0.10790  0.48430  Biso   1.000  H
  H315     1.0000 0.80640  0.05780  0.48480  Biso   1.000  H
  N136     1.0000 0.23800  0.61180  0.96230  Biso   1.000  N
  N137     1.0000 0.19740  0.62680  0.97707  Biso   1.000  N
  N138     1.0000 0.30560  0.64150  0.88060  Biso   1.000  N
  C46      1.0000 0.34450  0.62300  0.86480  Biso   1.000  C
  H316     1.0000 0.34830  0.59290  0.85540  Biso   1.000  H
  H317     1.0000 0.30200  0.73710  0.92580  Biso   1.000  H
  H318     1.0000 0.29210  0.74990  0.84360  Biso   1.000  H
  H319     1.0000 0.21230  0.75040  0.90370  Biso   1.000  H
  H320     1.0000 0.31580  0.58330  0.03090  Biso   1.000  H
  H321     1.0000 0.32490  0.60790  0.98430  Biso   1.000  H
  H322     1.0000 0.30640  0.55780  0.98480  Biso   1.000  H
  N139     1.0000 0.73800  0.88820  0.53770  Biso   1.000  N
  N140     1.0000 0.69740  0.87320  0.52293  Biso   1.000  N
  N141     1.0000 0.80560  0.85850  0.61940  Biso   1.000  N
  C47      1.0000 0.84450  0.87700  0.63520  Biso   1.000  C
  H323     1.0000 0.84830  0.90710  0.64460  Biso   1.000  H
  H324     1.0000 0.80200  0.76290  0.57420  Biso   1.000  H
  H325     1.0000 0.79210  0.75010  0.65640  Biso   1.000  H
  H326     1.0000 0.71230  0.74960  0.59630  Biso   1.000  H
  H327     1.0000 0.81580  0.91670  0.46910  Biso   1.000  H
  H328     1.0000 0.82490  0.89210  0.51570  Biso   1.000  H
  H329     1.0000 0.80640  0.94220  0.51520  Biso   1.000  H
  N142     1.0000 0.23800  0.38820  0.03770  Biso   1.000  N
  N143     1.0000 0.19740  0.37320  0.02293  Biso   1.000  N
  N144     1.0000 0.30560  0.35850  0.11940  Biso   1.000  N
  C48      1.0000 0.34450  0.37700  0.13520  Biso   1.000  C
  H330     1.0000 0.34830  0.40710  0.14460  Biso   1.000  H
  H331     1.0000 0.30200  0.26290  0.07420  Biso   1.000  H
  H332     1.0000 0.29210  0.25010  0.15640  Biso   1.000  H
  H333     1.0000 0.21230  0.24960  0.09630  Biso   1.000  H
  H334     1.0000 0.31580  0.41670  0.96910  Biso   1.000  H
  H335     1.0000 0.32490  0.39210  0.01570  Biso   1.000  H
  H336     1.0000 0.30640  0.44220  0.01520  Biso   1.000  H
  N145     1.0000 0.53770  0.88820  0.73800  Biso   1.000  N
  N146     1.0000 0.52293  0.87320  0.69740  Biso   1.000  N
  N147     1.0000 0.61940  0.85850  0.80560  Biso   1.000  N
  C49      1.0000 0.63520  0.87700  0.84450  Biso   1.000  C
  H337     1.0000 0.64460  0.90710  0.84830  Biso   1.000  H
  H338     1.0000 0.57420  0.76290  0.80200  Biso   1.000  H
  H339     1.0000 0.65640  0.75010  0.79210  Biso   1.000  H
  H340     1.0000 0.59630  0.74960  0.71230  Biso   1.000  H
  H341     1.0000 0.46910  0.91670  0.81580  Biso   1.000  H
  H342     1.0000 0.51570  0.89210  0.82490  Biso   1.000  H
  H343     1.0000 0.51520  0.94220  0.80640  Biso   1.000  H
  N148     1.0000 0.03770  0.38820  0.23800  Biso   1.000  N
  N149     1.0000 0.02293  0.37320  0.19740  Biso   1.000  N
  N150     1.0000 0.11940  0.35850  0.30560  Biso   1.000  N
  C50      1.0000 0.13520  0.37700  0.34450  Biso   1.000  C
  H344     1.0000 0.14460  0.40710  0.34830  Biso   1.000  H
  H345     1.0000 0.07420  0.26290  0.30200  Biso   1.000  H
  H346     1.0000 0.15640  0.25010  0.29210  Biso   1.000  H
  H347     1.0000 0.09630  0.24960  0.21230  Biso   1.000  H
  H348     1.0000 0.96910  0.41670  0.31580  Biso   1.000  H
  H349     1.0000 0.01570  0.39210  0.32490  Biso   1.000  H
  H350     1.0000 0.01520  0.44220  0.30640  Biso   1.000  H
  N151     1.0000 0.46230  0.11180  0.73800  Biso   1.000  N
  N152     1.0000 0.47707  0.12680  0.69740  Biso   1.000  N
  N153     1.0000 0.38060  0.14150  0.80560  Biso   1.000  N
  C51      1.0000 0.36480  0.12300  0.84450  Biso   1.000  C
  H351     1.0000 0.35540  0.09290  0.84830  Biso   1.000  H
  H352     1.0000 0.42580  0.23710  0.80200  Biso   1.000  H
  H353     1.0000 0.34360  0.24990  0.79210  Biso   1.000  H
  H354     1.0000 0.40370  0.25040  0.71230  Biso   1.000  H
  H355     1.0000 0.53090  0.08330  0.81580  Biso   1.000  H
  H356     1.0000 0.48430  0.10790  0.82490  Biso   1.000  H
  H357     1.0000 0.48480  0.05780  0.80640  Biso   1.000  H
  N154     1.0000 0.96230  0.61180  0.23800  Biso   1.000  N
  N155     1.0000 0.97707  0.62680  0.19740  Biso   1.000  N
  N156     1.0000 0.88060  0.64150  0.30560  Biso   1.000  N
  C52      1.0000 0.86480  0.62300  0.34450  Biso   1.000  C
  H358     1.0000 0.85540  0.59290  0.34830  Biso   1.000  H
  H359     1.0000 0.92580  0.73710  0.30200  Biso   1.000  H
  H360     1.0000 0.84360  0.74990  0.29210  Biso   1.000  H
  H361     1.0000 0.90370  0.75040  0.21230  Biso   1.000  H
  H362     1.0000 0.03090  0.58330  0.31580  Biso   1.000  H
  H363     1.0000 0.98430  0.60790  0.32490  Biso   1.000  H
  H364     1.0000 0.98480  0.55780  0.30640  Biso   1.000  H
  N157     1.0000 0.46230  0.88820  0.26200  Biso   1.000  N
  N158     1.0000 0.47707  0.87320  0.30260  Biso   1.000  N
  N159     1.0000 0.38060  0.85850  0.19440  Biso   1.000  N
  C53      1.0000 0.36480  0.87700  0.15550  Biso   1.000  C
  H365     1.0000 0.35540  0.90710  0.15170  Biso   1.000  H
  H366     1.0000 0.42580  0.76290  0.19800  Biso   1.000  H
  H367     1.0000 0.34360  0.75010  0.20790  Biso   1.000  H
  H368     1.0000 0.40370  0.74960  0.28770  Biso   1.000  H
  H369     1.0000 0.53090  0.91670  0.18420  Biso   1.000  H
  H370     1.0000 0.48430  0.89210  0.17510  Biso   1.000  H
  H371     1.0000 0.48480  0.94220  0.19360  Biso   1.000  H
  N160     1.0000 0.96230  0.38820  0.76200  Biso   1.000  N
  N161     1.0000 0.97707  0.37320  0.80260  Biso   1.000  N
  N162     1.0000 0.88060  0.35850  0.69440  Biso   1.000  N
  C54      1.0000 0.86480  0.37700  0.65550  Biso   1.000  C
  H372     1.0000 0.85540  0.40710  0.65170  Biso   1.000  H
  H373     1.0000 0.92580  0.26290  0.69800  Biso   1.000  H
  H374     1.0000 0.84360  0.25010  0.70790  Biso   1.000  H
  H375     1.0000 0.90370  0.24960  0.78770  Biso   1.000  H
  H376     1.0000 0.03090  0.41670  0.68420  Biso   1.000  H
  H377     1.0000 0.98430  0.39210  0.67510  Biso   1.000  H
  H378     1.0000 0.98480  0.44220  0.69360  Biso   1.000  H
  N163     1.0000 0.53770  0.11180  0.26200  Biso   1.000  N
  N164     1.0000 0.52293  0.12680  0.30260  Biso   1.000  N
  N165     1.0000 0.61940  0.14150  0.19440  Biso   1.000  N
  C55      1.0000 0.63520  0.12300  0.15550  Biso   1.000  C
  H379     1.0000 0.64460  0.09290  0.15170  Biso   1.000  H
  H380     1.0000 0.57420  0.23710  0.19800  Biso   1.000  H
  H381     1.0000 0.65640  0.24990  0.20790  Biso   1.000  H
  H382     1.0000 0.59630  0.25040  0.28770  Biso   1.000  H
  H383     1.0000 0.46910  0.08330  0.18420  Biso   1.000  H
  H384     1.0000 0.51570  0.10790  0.17510  Biso   1.000  H
  H385     1.0000 0.51520  0.05780  0.19360  Biso   1.000  H
  N166     1.0000 0.03770  0.61180  0.76200  Biso   1.000  N
  N167     1.0000 0.02293  0.62680  0.80260  Biso   1.000  N
  N168     1.0000 0.11940  0.64150  0.69440  Biso   1.000  N
  C56      1.0000 0.13520  0.62300  0.65550  Biso   1.000  C
  H386     1.0000 0.14460  0.59290  0.65170  Biso   1.000  H
  H387     1.0000 0.07420  0.73710  0.69800  Biso   1.000  H
  H388     1.0000 0.15640  0.74990  0.70790  Biso   1.000  H
  H389     1.0000 0.09630  0.75040  0.78770  Biso   1.000  H
  H390     1.0000 0.96910  0.58330  0.68420  Biso   1.000  H
  H391     1.0000 0.01570  0.60790  0.67510  Biso   1.000  H
  H392     1.0000 0.01520  0.55780  0.69360  Biso   1.000  H
  N169     1.0000 0.73800  0.53770  0.88820  Biso   1.000  N
  N170     1.0000 0.69740  0.52293  0.87320  Biso   1.000  N
  N171     1.0000 0.80560  0.61940  0.85850  Biso   1.000  N
  C57      1.0000 0.84450  0.63520  0.87700  Biso   1.000  C
  H393     1.0000 0.84830  0.64460  0.90710  Biso   1.000  H
  H394     1.0000 0.80200  0.57420  0.76290  Biso   1.000  H
  H395     1.0000 0.79210  0.65640  0.75010  Biso   1.000  H
  H396     1.0000 0.71230  0.59630  0.74960  Biso   1.000  H
  H397     1.0000 0.81580  0.46910  0.91670  Biso   1.000  H
  H398     1.0000 0.82490  0.51570  0.89210  Biso   1.000  H
  H399     1.0000 0.80640  0.51520  0.94220  Biso   1.000  H
  N172     1.0000 0.23800  0.03770  0.38820  Biso   1.000  N
  N173     1.0000 0.19740  0.02293  0.37320  Biso   1.000  N
  N174     1.0000 0.30560  0.11940  0.35850  Biso   1.000  N
  C58      1.0000 0.34450  0.13520  0.37700  Biso   1.000  C
  H400     1.0000 0.34830  0.14460  0.40710  Biso   1.000  H
  H401     1.0000 0.30200  0.07420  0.26290  Biso   1.000  H
  H402     1.0000 0.29210  0.15640  0.25010  Biso   1.000  H
  H403     1.0000 0.21230  0.09630  0.24960  Biso   1.000  H
  H404     1.0000 0.31580  0.96910  0.41670  Biso   1.000  H
  H405     1.0000 0.32490  0.01570  0.39210  Biso   1.000  H
  H406     1.0000 0.30640  0.01520  0.44220  Biso   1.000  H
  N175     1.0000 0.73800  0.46230  0.11180  Biso   1.000  N
  N176     1.0000 0.69740  0.47707  0.12680  Biso   1.000  N
  N177     1.0000 0.80560  0.38060  0.14150  Biso   1.000  N
  C59      1.0000 0.84450  0.36480  0.12300  Biso   1.000  C
  H407     1.0000 0.84830  0.35540  0.09290  Biso   1.000  H
  H408     1.0000 0.80200  0.42580  0.23710  Biso   1.000  H
  H409     1.0000 0.79210  0.34360  0.24990  Biso   1.000  H
  H410     1.0000 0.71230  0.40370  0.25040  Biso   1.000  H
  H411     1.0000 0.81580  0.53090  0.08330  Biso   1.000  H
  H412     1.0000 0.82490  0.48430  0.10790  Biso   1.000  H
  H413     1.0000 0.80640  0.48480  0.05780  Biso   1.000  H
  N178     1.0000 0.23800  0.96230  0.61180  Biso   1.000  N
  N179     1.0000 0.19740  0.97707  0.62680  Biso   1.000  N
  N180     1.0000 0.30560  0.88060  0.64150  Biso   1.000  N
  C60      1.0000 0.34450  0.86480  0.62300  Biso   1.000  C
  H414     1.0000 0.34830  0.85540  0.59290  Biso   1.000  H
  H415     1.0000 0.30200  0.92580  0.73710  Biso   1.000  H
  H416     1.0000 0.29210  0.84360  0.74990  Biso   1.000  H
  H417     1.0000 0.21230  0.90370  0.75040  Biso   1.000  H
  H418     1.0000 0.31580  0.03090  0.58330  Biso   1.000  H
  H419     1.0000 0.32490  0.98430  0.60790  Biso   1.000  H
  H420     1.0000 0.30640  0.98480  0.55780  Biso   1.000  H
  N181     1.0000 0.26200  0.46230  0.88820  Biso   1.000  N
  N182     1.0000 0.30260  0.47707  0.87320  Biso   1.000  N
  N183     1.0000 0.19440  0.38060  0.85850  Biso   1.000  N
  C61      1.0000 0.15550  0.36480  0.87700  Biso   1.000  C
  H421     1.0000 0.15170  0.35540  0.90710  Biso   1.000  H
  H422     1.0000 0.19800  0.42580  0.76290  Biso   1.000  H
  H423     1.0000 0.20790  0.34360  0.75010  Biso   1.000  H
  H424     1.0000 0.28770  0.40370  0.74960  Biso   1.000  H
  H425     1.0000 0.18420  0.53090  0.91670  Biso   1.000  H
  H426     1.0000 0.17510  0.48430  0.89210  Biso   1.000  H
  H427     1.0000 0.19360  0.48480  0.94220  Biso   1.000  H
  N184     1.0000 0.76200  0.96230  0.38820  Biso   1.000  N
  N185     1.0000 0.80260  0.97707  0.37320  Biso   1.000  N
  N186     1.0000 0.69440  0.88060  0.35850  Biso   1.000  N
  C62      1.0000 0.65550  0.86480  0.37700  Biso   1.000  C
  H428     1.0000 0.65170  0.85540  0.40710  Biso   1.000  H
  H429     1.0000 0.69800  0.92580  0.26290  Biso   1.000  H
  H430     1.0000 0.70790  0.84360  0.25010  Biso   1.000  H
  H431     1.0000 0.78770  0.90370  0.24960  Biso   1.000  H
  H432     1.0000 0.68420  0.03090  0.41670  Biso   1.000  H
  H433     1.0000 0.67510  0.98430  0.39210  Biso   1.000  H
  H434     1.0000 0.69360  0.98480  0.44220  Biso   1.000  H
  N187     1.0000 0.26200  0.53770  0.11180  Biso   1.000  N
  N188     1.0000 0.30260  0.52293  0.12680  Biso   1.000  N
  N189     1.0000 0.19440  0.61940  0.14150  Biso   1.000  N
  C63      1.0000 0.15550  0.63520  0.12300  Biso   1.000  C
  H435     1.0000 0.15170  0.64460  0.09290  Biso   1.000  H
  H436     1.0000 0.19800  0.57420  0.23710  Biso   1.000  H
  H437     1.0000 0.20790  0.65640  0.24990  Biso   1.000  H
  H438     1.0000 0.28770  0.59630  0.25040  Biso   1.000  H
  H439     1.0000 0.18420  0.46910  0.08330  Biso   1.000  H
  H440     1.0000 0.17510  0.51570  0.10790  Biso   1.000  H
  H441     1.0000 0.19360  0.51520  0.05780  Biso   1.000  H
  N190     1.0000 0.76200  0.03770  0.61180  Biso   1.000  N
  N191     1.0000 0.80260  0.02293  0.62680  Biso   1.000  N
  N192     1.0000 0.69440  0.11940  0.64150  Biso   1.000  N
  C64      1.0000 0.65550  0.13520  0.62300  Biso   1.000  C
  H442     1.0000 0.65170  0.14460  0.59290  Biso   1.000  H
  H443     1.0000 0.69800  0.07420  0.73710  Biso   1.000  H
  H444     1.0000 0.70790  0.15640  0.74990  Biso   1.000  H
  H445     1.0000 0.78770  0.09630  0.75040  Biso   1.000  H
  H446     1.0000 0.68420  0.96910  0.58330  Biso   1.000  H
  H447     1.0000 0.67510  0.01570  0.60790  Biso   1.000  H
  H448     1.0000 0.69360  0.01520  0.55780  Biso   1.000  H
  N193     1.0000 0.88820  0.73800  0.53770  Biso   1.000  N
  N194     1.0000 0.87320  0.69740  0.52293  Biso   1.000  N
  N195     1.0000 0.85850  0.80560  0.61940  Biso   1.000  N
  C65      1.0000 0.87700  0.84450  0.63520  Biso   1.000  C
  H449     1.0000 0.90710  0.84830  0.64460  Biso   1.000  H
  H450     1.0000 0.76290  0.80200  0.57420  Biso   1.000  H
  H451     1.0000 0.75010  0.79210  0.65640  Biso   1.000  H
  H452     1.0000 0.74960  0.71230  0.59630  Biso   1.000  H
  H453     1.0000 0.91670  0.81580  0.46910  Biso   1.000  H
  H454     1.0000 0.89210  0.82490  0.51570  Biso   1.000  H
  H455     1.0000 0.94220  0.80640  0.51520  Biso   1.000  H
  N196     1.0000 0.38820  0.23800  0.03770  Biso   1.000  N
  N197     1.0000 0.37320  0.19740  0.02293  Biso   1.000  N
  N198     1.0000 0.35850  0.30560  0.11940  Biso   1.000  N
  C66      1.0000 0.37700  0.34450  0.13520  Biso   1.000  C
  H456     1.0000 0.40710  0.34830  0.14460  Biso   1.000  H
  H457     1.0000 0.26290  0.30200  0.07420  Biso   1.000  H
  H458     1.0000 0.25010  0.29210  0.15640  Biso   1.000  H
  H459     1.0000 0.24960  0.21230  0.09630  Biso   1.000  H
  H460     1.0000 0.41670  0.31580  0.96910  Biso   1.000  H
  H461     1.0000 0.39210  0.32490  0.01570  Biso   1.000  H
  H462     1.0000 0.44220  0.30640  0.01520  Biso   1.000  H
  N199     1.0000 0.11180  0.73800  0.46230  Biso   1.000  N
  N200     1.0000 0.12680  0.69740  0.47707  Biso   1.000  N
  N201     1.0000 0.14150  0.80560  0.38060  Biso   1.000  N
  C67      1.0000 0.12300  0.84450  0.36480  Biso   1.000  C
  H463     1.0000 0.09290  0.84830  0.35540  Biso   1.000  H
  H464     1.0000 0.23710  0.80200  0.42580  Biso   1.000  H
  H465     1.0000 0.24990  0.79210  0.34360  Biso   1.000  H
  H466     1.0000 0.25040  0.71230  0.40370  Biso   1.000  H
  H467     1.0000 0.08330  0.81580  0.53090  Biso   1.000  H
  H468     1.0000 0.10790  0.82490  0.48430  Biso   1.000  H
  H469     1.0000 0.05780  0.80640  0.48480  Biso   1.000  H
  N202     1.0000 0.61180  0.23800  0.96230  Biso   1.000  N
  N203     1.0000 0.62680  0.19740  0.97707  Biso   1.000  N
  N204     1.0000 0.64150  0.30560  0.88060  Biso   1.000  N
  C68      1.0000 0.62300  0.34450  0.86480  Biso   1.000  C
  H470     1.0000 0.59290  0.34830  0.85540  Biso   1.000  H
  H471     1.0000 0.73710  0.30200  0.92580  Biso   1.000  H
  H472     1.0000 0.74990  0.29210  0.84360  Biso   1.000  H
  H473     1.0000 0.75040  0.21230  0.90370  Biso   1.000  H
  H474     1.0000 0.58330  0.31580  0.03090  Biso   1.000  H
  H475     1.0000 0.60790  0.32490  0.98430  Biso   1.000  H
  H476     1.0000 0.55780  0.30640  0.98480  Biso   1.000  H
  N205     1.0000 0.88820  0.26200  0.46230  Biso   1.000  N
  N206     1.0000 0.87320  0.30260  0.47707  Biso   1.000  N
  N207     1.0000 0.85850  0.19440  0.38060  Biso   1.000  N
  C69      1.0000 0.87700  0.15550  0.36480  Biso   1.000  C
  H477     1.0000 0.90710  0.15170  0.35540  Biso   1.000  H
  H478     1.0000 0.76290  0.19800  0.42580  Biso   1.000  H
  H479     1.0000 0.75010  0.20790  0.34360  Biso   1.000  H
  H480     1.0000 0.74960  0.28770  0.40370  Biso   1.000  H
  H481     1.0000 0.91670  0.18420  0.53090  Biso   1.000  H
  H482     1.0000 0.89210  0.17510  0.48430  Biso   1.000  H
  H483     1.0000 0.94220  0.19360  0.48480  Biso   1.000  H
  N208     1.0000 0.38820  0.76200  0.96230  Biso   1.000  N
  N209     1.0000 0.37320  0.80260  0.97707  Biso   1.000  N
  N210     1.0000 0.35850  0.69440  0.88060  Biso   1.000  N
  C70      1.0000 0.37700  0.65550  0.86480  Biso   1.000  C
  H484     1.0000 0.40710  0.65170  0.85540  Biso   1.000  H
  H485     1.0000 0.26290  0.69800  0.92580  Biso   1.000  H
  H486     1.0000 0.25010  0.70790  0.84360  Biso   1.000  H
  H487     1.0000 0.24960  0.78770  0.90370  Biso   1.000  H
  H488     1.0000 0.41670  0.68420  0.03090  Biso   1.000  H
  H489     1.0000 0.39210  0.67510  0.98430  Biso   1.000  H
  H490     1.0000 0.44220  0.69360  0.98480  Biso   1.000  H
  N211     1.0000 0.11180  0.26200  0.53770  Biso   1.000  N
  N212     1.0000 0.12680  0.30260  0.52293  Biso   1.000  N
  N213     1.0000 0.14150  0.19440  0.61940  Biso   1.000  N
  C71      1.0000 0.12300  0.15550  0.63520  Biso   1.000  C
  H491     1.0000 0.09290  0.15170  0.64460  Biso   1.000  H
  H492     1.0000 0.23710  0.19800  0.57420  Biso   1.000  H
  H493     1.0000 0.24990  0.20790  0.65640  Biso   1.000  H
  H494     1.0000 0.25040  0.28770  0.59630  Biso   1.000  H
  H495     1.0000 0.08330  0.18420  0.46910  Biso   1.000  H
  H496     1.0000 0.10790  0.17510  0.51570  Biso   1.000  H
  H497     1.0000 0.05780  0.19360  0.51520  Biso   1.000  H
  N214     1.0000 0.61180  0.76200  0.03770  Biso   1.000  N
  N215     1.0000 0.62680  0.80260  0.02293  Biso   1.000  N
  N216     1.0000 0.64150  0.69440  0.11940  Biso   1.000  N
  C72      1.0000 0.62300  0.65550  0.13520  Biso   1.000  C
  H498     1.0000 0.59290  0.65170  0.14460  Biso   1.000  H
  H499     1.0000 0.73710  0.69800  0.07420  Biso   1.000  H
  H500     1.0000 0.74990  0.70790  0.15640  Biso   1.000  H
  H501     1.0000 0.75040  0.78770  0.09630  Biso   1.000  H
  H502     1.0000 0.58330  0.68420  0.96910  Biso   1.000  H
  H503     1.0000 0.60790  0.67510  0.01570  Biso   1.000  H
  H504     1.0000 0.55780  0.69360  0.01520  Biso   1.000  H
  N217     1.0000 0.88820  0.53770  0.26200  Biso   1.000  N
  N218     1.0000 0.87320  0.52293  0.30260  Biso   1.000  N
  N219     1.0000 0.85850  0.61940  0.19440  Biso   1.000  N
  C73      1.0000 0.87700  0.63520  0.15550  Biso   1.000  C
  H505     1.0000 0.90710  0.64460  0.15170  Biso   1.000  H
  H506     1.0000 0.76290  0.57420  0.19800  Biso   1.000  H
  H507     1.0000 0.75010  0.65640  0.20790  Biso   1.000  H
  H508     1.0000 0.74960  0.59630  0.28770  Biso   1.000  H
  H509     1.0000 0.91670  0.46910  0.18420  Biso   1.000  H
  H510     1.0000 0.89210  0.51570  0.17510  Biso   1.000  H
  H511     1.0000 0.94220  0.51520  0.19360  Biso   1.000  H
  N220     1.0000 0.38820  0.03770  0.76200  Biso   1.000  N
  N221     1.0000 0.37320  0.02293  0.80260  Biso   1.000  N
  N222     1.0000 0.35850  0.11940  0.69440  Biso   1.000  N
  C74      1.0000 0.37700  0.13520  0.65550  Biso   1.000  C
  H512     1.0000 0.40710  0.14460  0.65170  Biso   1.000  H
  H513     1.0000 0.26290  0.07420  0.69800  Biso   1.000  H
  H514     1.0000 0.25010  0.15640  0.70790  Biso   1.000  H
  H515     1.0000 0.24960  0.09630  0.78770  Biso   1.000  H
  H516     1.0000 0.41670  0.96910  0.68420  Biso   1.000  H
  H517     1.0000 0.39210  0.01570  0.67510  Biso   1.000  H
  H518     1.0000 0.44220  0.01520  0.69360  Biso   1.000  H
  N223     1.0000 0.11180  0.46230  0.26200  Biso   1.000  N
  N224     1.0000 0.12680  0.47707  0.30260  Biso   1.000  N
  N225     1.0000 0.14150  0.38060  0.19440  Biso   1.000  N
  C75      1.0000 0.12300  0.36480  0.15550  Biso   1.000  C
  H519     1.0000 0.09290  0.35540  0.15170  Biso   1.000  H
  H520     1.0000 0.23710  0.42580  0.19800  Biso   1.000  H
  H521     1.0000 0.24990  0.34360  0.20790  Biso   1.000  H
  H522     1.0000 0.25040  0.40370  0.28770  Biso   1.000  H
  H523     1.0000 0.08330  0.53090  0.18420  Biso   1.000  H
  H524     1.0000 0.10790  0.48430  0.17510  Biso   1.000  H
  H525     1.0000 0.05780  0.48480  0.19360  Biso   1.000  H
  N226     1.0000 0.61180  0.96230  0.76200  Biso   1.000  N
  N227     1.0000 0.62680  0.97707  0.80260  Biso   1.000  N
  N228     1.0000 0.64150  0.88060  0.69440  Biso   1.000  N
  C76      1.0000 0.62300  0.86480  0.65550  Biso   1.000  C
  H526     1.0000 0.59290  0.85540  0.65170  Biso   1.000  H
  H527     1.0000 0.73710  0.92580  0.69800  Biso   1.000  H
  H528     1.0000 0.74990  0.84360  0.70790  Biso   1.000  H
  H529     1.0000 0.75040  0.90370  0.78770  Biso   1.000  H
  H530     1.0000 0.58330  0.03090  0.68420  Biso   1.000  H
  H531     1.0000 0.60790  0.98430  0.67510  Biso   1.000  H
  H532     1.0000 0.55780  0.98480  0.69360  Biso   1.000  H
  N229     1.0000 0.88820  0.46230  0.73800  Biso   1.000  N
  N230     1.0000 0.87320  0.47707  0.69740  Biso   1.000  N
  N231     1.0000 0.85850  0.38060  0.80560  Biso   1.000  N
  C77      1.0000 0.87700  0.36480  0.84450  Biso   1.000  C
  H533     1.0000 0.90710  0.35540  0.84830  Biso   1.000  H
  H534     1.0000 0.76290  0.42580  0.80200  Biso   1.000  H
  H535     1.0000 0.75010  0.34360  0.79210  Biso   1.000  H
  H536     1.0000 0.74960  0.40370  0.71230  Biso   1.000  H
  H537     1.0000 0.91670  0.53090  0.81580  Biso   1.000  H
  H538     1.0000 0.89210  0.48430  0.82490  Biso   1.000  H
  H539     1.0000 0.94220  0.48480  0.80640  Biso   1.000  H
  N232     1.0000 0.38820  0.96230  0.23800  Biso   1.000  N
  N233     1.0000 0.37320  0.97707  0.19740  Biso   1.000  N
  N234     1.0000 0.35850  0.88060  0.30560  Biso   1.000  N
  C78      1.0000 0.37700  0.86480  0.34450  Biso   1.000  C
  H540     1.0000 0.40710  0.85540  0.34830  Biso   1.000  H
  H541     1.0000 0.26290  0.92580  0.30200  Biso   1.000  H
  H542     1.0000 0.25010  0.84360  0.29210  Biso   1.000  H
  H543     1.0000 0.24960  0.90370  0.21230  Biso   1.000  H
  H544     1.0000 0.41670  0.03090  0.31580  Biso   1.000  H
  H545     1.0000 0.39210  0.98430  0.32490  Biso   1.000  H
  H546     1.0000 0.44220  0.98480  0.30640  Biso   1.000  H
  N235     1.0000 0.11180  0.53770  0.73800  Biso   1.000  N
  N236     1.0000 0.12680  0.52293  0.69740  Biso   1.000  N
  N237     1.0000 0.14150  0.61940  0.80560  Biso   1.000  N
  C79      1.0000 0.12300  0.63520  0.84450  Biso   1.000  C
  H547     1.0000 0.09290  0.64460  0.84830  Biso   1.000  H
  H548     1.0000 0.23710  0.57420  0.80200  Biso   1.000  H
  H549     1.0000 0.24990  0.65640  0.79210  Biso   1.000  H
  H550     1.0000 0.25040  0.59630  0.71230  Biso   1.000  H
  H551     1.0000 0.08330  0.46910  0.81580  Biso   1.000  H
  H552     1.0000 0.10790  0.51570  0.82490  Biso   1.000  H
  H553     1.0000 0.05780  0.51520  0.80640  Biso   1.000  H
  N238     1.0000 0.61180  0.03770  0.23800  Biso   1.000  N
  N239     1.0000 0.62680  0.02293  0.19740  Biso   1.000  N
  N240     1.0000 0.64150  0.11940  0.30560  Biso   1.000  N
  C80      1.0000 0.62300  0.13520  0.34450  Biso   1.000  C
  H554     1.0000 0.59290  0.14460  0.34830  Biso   1.000  H
  H555     1.0000 0.73710  0.07420  0.30200  Biso   1.000  H
  H556     1.0000 0.74990  0.15640  0.29210  Biso   1.000  H
  H557     1.0000 0.75040  0.09630  0.21230  Biso   1.000  H
  H558     1.0000 0.58330  0.96910  0.31580  Biso   1.000  H
  H559     1.0000 0.60790  0.01570  0.32490  Biso   1.000  H
  H560     1.0000 0.55780  0.01520  0.30640  Biso   1.000  H
  N241     1.0000 0.53770  0.73800  0.11180  Biso   1.000  N
  N242     1.0000 0.52293  0.69740  0.12680  Biso   1.000  N
  N243     1.0000 0.61940  0.80560  0.14150  Biso   1.000  N
  C81      1.0000 0.63520  0.84450  0.12300  Biso   1.000  C
  H561     1.0000 0.64460  0.84830  0.09290  Biso   1.000  H
  H562     1.0000 0.57420  0.80200  0.23710  Biso   1.000  H
  H563     1.0000 0.65640  0.79210  0.24990  Biso   1.000  H
  H564     1.0000 0.59630  0.71230  0.25040  Biso   1.000  H
  H565     1.0000 0.46910  0.81580  0.08330  Biso   1.000  H
  H566     1.0000 0.51570  0.82490  0.10790  Biso   1.000  H
  H567     1.0000 0.51520  0.80640  0.05780  Biso   1.000  H
  N244     1.0000 0.03770  0.23800  0.61180  Biso   1.000  N
  N245     1.0000 0.02293  0.19740  0.62680  Biso   1.000  N
  N246     1.0000 0.11940  0.30560  0.64150  Biso   1.000  N
  C82      1.0000 0.13520  0.34450  0.62300  Biso   1.000  C
  H568     1.0000 0.14460  0.34830  0.59290  Biso   1.000  H
  H569     1.0000 0.07420  0.30200  0.73710  Biso   1.000  H
  H570     1.0000 0.15640  0.29210  0.74990  Biso   1.000  H
  H571     1.0000 0.09630  0.21230  0.75040  Biso   1.000  H
  H572     1.0000 0.96910  0.31580  0.58330  Biso   1.000  H
  H573     1.0000 0.01570  0.32490  0.60790  Biso   1.000  H
  H574     1.0000 0.01520  0.30640  0.55780  Biso   1.000  H
  N247     1.0000 0.46230  0.73800  0.88820  Biso   1.000  N
  N248     1.0000 0.47707  0.69740  0.87320  Biso   1.000  N
  N249     1.0000 0.38060  0.80560  0.85850  Biso   1.000  N
  C83      1.0000 0.36480  0.84450  0.87700  Biso   1.000  C
  H575     1.0000 0.35540  0.84830  0.90710  Biso   1.000  H
  H576     1.0000 0.42580  0.80200  0.76290  Biso   1.000  H
  H577     1.0000 0.34360  0.79210  0.75010  Biso   1.000  H
  H578     1.0000 0.40370  0.71230  0.74960  Biso   1.000  H
  H579     1.0000 0.53090  0.81580  0.91670  Biso   1.000  H
  H580     1.0000 0.48430  0.82490  0.89210  Biso   1.000  H
  H581     1.0000 0.48480  0.80640  0.94220  Biso   1.000  H
  N250     1.0000 0.96230  0.23800  0.38820  Biso   1.000  N
  N251     1.0000 0.97707  0.19740  0.37320  Biso   1.000  N
  N252     1.0000 0.88060  0.30560  0.35850  Biso   1.000  N
  C84      1.0000 0.86480  0.34450  0.37700  Biso   1.000  C
  H582     1.0000 0.85540  0.34830  0.40710  Biso   1.000  H
  H583     1.0000 0.92580  0.30200  0.26290  Biso   1.000  H
  H584     1.0000 0.84360  0.29210  0.25010  Biso   1.000  H
  H585     1.0000 0.90370  0.21230  0.24960  Biso   1.000  H
  H586     1.0000 0.03090  0.31580  0.41670  Biso   1.000  H
  H587     1.0000 0.98430  0.32490  0.39210  Biso   1.000  H
  H588     1.0000 0.98480  0.30640  0.44220  Biso   1.000  H
  N253     1.0000 0.46230  0.26200  0.11180  Biso   1.000  N
  N254     1.0000 0.47707  0.30260  0.12680  Biso   1.000  N
  N255     1.0000 0.38060  0.19440  0.14150  Biso   1.000  N
  C85      1.0000 0.36480  0.15550  0.12300  Biso   1.000  C
  H589     1.0000 0.35540  0.15170  0.09290  Biso   1.000  H
  H590     1.0000 0.42580  0.19800  0.23710  Biso   1.000  H
  H591     1.0000 0.34360  0.20790  0.24990  Biso   1.000  H
  H592     1.0000 0.40370  0.28770  0.25040  Biso   1.000  H
  H593     1.0000 0.53090  0.18420  0.08330  Biso   1.000  H
  H594     1.0000 0.48430  0.17510  0.10790  Biso   1.000  H
  H595     1.0000 0.48480  0.19360  0.05780  Biso   1.000  H
  N256     1.0000 0.96230  0.76200  0.61180  Biso   1.000  N
  N257     1.0000 0.97707  0.80260  0.62680  Biso   1.000  N
  N258     1.0000 0.88060  0.69440  0.64150  Biso   1.000  N
  C86      1.0000 0.86480  0.65550  0.62300  Biso   1.000  C
  H596     1.0000 0.85540  0.65170  0.59290  Biso   1.000  H
  H597     1.0000 0.92580  0.69800  0.73710  Biso   1.000  H
  H598     1.0000 0.84360  0.70790  0.74990  Biso   1.000  H
  H599     1.0000 0.90370  0.78770  0.75040  Biso   1.000  H
  H600     1.0000 0.03090  0.68420  0.58330  Biso   1.000  H
  H601     1.0000 0.98430  0.67510  0.60790  Biso   1.000  H
  H602     1.0000 0.98480  0.69360  0.55780  Biso   1.000  H
  N259     1.0000 0.53770  0.26200  0.88820  Biso   1.000  N
  N260     1.0000 0.52293  0.30260  0.87320  Biso   1.000  N
  N261     1.0000 0.61940  0.19440  0.85850  Biso   1.000  N
  C87      1.0000 0.63520  0.15550  0.87700  Biso   1.000  C
  H603     1.0000 0.64460  0.15170  0.90710  Biso   1.000  H
  H604     1.0000 0.57420  0.19800  0.76290  Biso   1.000  H
  H605     1.0000 0.65640  0.20790  0.75010  Biso   1.000  H
  H606     1.0000 0.59630  0.28770  0.74960  Biso   1.000  H
  H607     1.0000 0.46910  0.18420  0.91670  Biso   1.000  H
  H608     1.0000 0.51570  0.17510  0.89210  Biso   1.000  H
  H609     1.0000 0.51520  0.19360  0.94220  Biso   1.000  H
  N262     1.0000 0.03770  0.76200  0.38820  Biso   1.000  N
  N263     1.0000 0.02293  0.80260  0.37320  Biso   1.000  N
  N264     1.0000 0.11940  0.69440  0.35850  Biso   1.000  N
  C88      1.0000 0.13520  0.65550  0.37700  Biso   1.000  C
  H610     1.0000 0.14460  0.65170  0.40710  Biso   1.000  H
  H611     1.0000 0.07420  0.69800  0.26290  Biso   1.000  H
  H612     1.0000 0.15640  0.70790  0.25010  Biso   1.000  H
  H613     1.0000 0.09630  0.78770  0.24960  Biso   1.000  H
  H614     1.0000 0.96910  0.68420  0.41670  Biso   1.000  H
  H615     1.0000 0.01570  0.67510  0.39210  Biso   1.000  H
  H616     1.0000 0.01520  0.69360  0.44220  Biso   1.000  H
  N265     1.0000 0.73800  0.88820  0.46230  Biso   1.000  N
  N266     1.0000 0.69740  0.87320  0.47707  Biso   1.000  N
  N267     1.0000 0.80560  0.85850  0.38060  Biso   1.000  N
  C89      1.0000 0.84450  0.87700  0.36480  Biso   1.000  C
  H617     1.0000 0.84830  0.90710  0.35540  Biso   1.000  H
  H618     1.0000 0.80200  0.76290  0.42580  Biso   1.000  H
  H619     1.0000 0.79210  0.75010  0.34360  Biso   1.000  H
  H620     1.0000 0.71230  0.74960  0.40370  Biso   1.000  H
  H621     1.0000 0.81580  0.91670  0.53090  Biso   1.000  H
  H622     1.0000 0.82490  0.89210  0.48430  Biso   1.000  H
  H623     1.0000 0.80640  0.94220  0.48480  Biso   1.000  H
  N268     1.0000 0.23800  0.38820  0.96230  Biso   1.000  N
  N269     1.0000 0.19740  0.37320  0.97707  Biso   1.000  N
  N270     1.0000 0.30560  0.35850  0.88060  Biso   1.000  N
  C90      1.0000 0.34450  0.37700  0.86480  Biso   1.000  C
  H624     1.0000 0.34830  0.40710  0.85540  Biso   1.000  H
  H625     1.0000 0.30200  0.26290  0.92580  Biso   1.000  H
  H626     1.0000 0.29210  0.25010  0.84360  Biso   1.000  H
  H627     1.0000 0.21230  0.24960  0.90370  Biso   1.000  H
  H628     1.0000 0.31580  0.41670  0.03090  Biso   1.000  H
  H629     1.0000 0.32490  0.39210  0.98430  Biso   1.000  H
  H630     1.0000 0.30640  0.44220  0.98480  Biso   1.000  H
  N271     1.0000 0.73800  0.11180  0.53770  Biso   1.000  N
  N272     1.0000 0.69740  0.12680  0.52293  Biso   1.000  N
  N273     1.0000 0.80560  0.14150  0.61940  Biso   1.000  N
  C91      1.0000 0.84450  0.12300  0.63520  Biso   1.000  C
  H631     1.0000 0.84830  0.09290  0.64460  Biso   1.000  H
  H632     1.0000 0.80200  0.23710  0.57420  Biso   1.000  H
  H633     1.0000 0.79210  0.24990  0.65640  Biso   1.000  H
  H634     1.0000 0.71230  0.25040  0.59630  Biso   1.000  H
  H635     1.0000 0.81580  0.08330  0.46910  Biso   1.000  H
  H636     1.0000 0.82490  0.10790  0.51570  Biso   1.000  H
  H637     1.0000 0.80640  0.05780  0.51520  Biso   1.000  H
  N274     1.0000 0.23800  0.61180  0.03770  Biso   1.000  N
  N275     1.0000 0.19740  0.62680  0.02293  Biso   1.000  N
  N276     1.0000 0.30560  0.64150  0.11940  Biso   1.000  N
  C92      1.0000 0.34450  0.62300  0.13520  Biso   1.000  C
  H638     1.0000 0.34830  0.59290  0.14460  Biso   1.000  H
  H639     1.0000 0.30200  0.73710  0.07420  Biso   1.000  H
  H640     1.0000 0.29210  0.74990  0.15640  Biso   1.000  H
  H641     1.0000 0.21230  0.75040  0.09630  Biso   1.000  H
  H642     1.0000 0.31580  0.58330  0.96910  Biso   1.000  H
  H643     1.0000 0.32490  0.60790  0.01570  Biso   1.000  H
  H644     1.0000 0.30640  0.55780  0.01520  Biso   1.000  H
  N277     1.0000 0.26200  0.88820  0.53770  Biso   1.000  N
  N278     1.0000 0.30260  0.87320  0.52293  Biso   1.000  N
  N279     1.0000 0.19440  0.85850  0.61940  Biso   1.000  N
  C93      1.0000 0.15550  0.87700  0.63520  Biso   1.000  C
  H645     1.0000 0.15170  0.90710  0.64460  Biso   1.000  H
  H646     1.0000 0.19800  0.76290  0.57420  Biso   1.000  H
  H647     1.0000 0.20790  0.75010  0.65640  Biso   1.000  H
  H648     1.0000 0.28770  0.74960  0.59630  Biso   1.000  H
  H649     1.0000 0.18420  0.91670  0.46910  Biso   1.000  H
  H650     1.0000 0.17510  0.89210  0.51570  Biso   1.000  H
  H651     1.0000 0.19360  0.94220  0.51520  Biso   1.000  H
  N280     1.0000 0.76200  0.38820  0.03770  Biso   1.000  N
  N281     1.0000 0.80260  0.37320  0.02293  Biso   1.000  N
  N282     1.0000 0.69440  0.35850  0.11940  Biso   1.000  N
  C94      1.0000 0.65550  0.37700  0.13520  Biso   1.000  C
  H652     1.0000 0.65170  0.40710  0.14460  Biso   1.000  H
  H653     1.0000 0.69800  0.26290  0.07420  Biso   1.000  H
  H654     1.0000 0.70790  0.25010  0.15640  Biso   1.000  H
  H655     1.0000 0.78770  0.24960  0.09630  Biso   1.000  H
  H656     1.0000 0.68420  0.41670  0.96910  Biso   1.000  H
  H657     1.0000 0.67510  0.39210  0.01570  Biso   1.000  H
  H658     1.0000 0.69360  0.44220  0.01520  Biso   1.000  H
  N283     1.0000 0.26200  0.11180  0.46230  Biso   1.000  N
  N284     1.0000 0.30260  0.12680  0.47707  Biso   1.000  N
  N285     1.0000 0.19440  0.14150  0.38060  Biso   1.000  N
  C95      1.0000 0.15550  0.12300  0.36480  Biso   1.000  C
  H659     1.0000 0.15170  0.09290  0.35540  Biso   1.000  H
  H660     1.0000 0.19800  0.23710  0.42580  Biso   1.000  H
  H661     1.0000 0.20790  0.24990  0.34360  Biso   1.000  H
  H662     1.0000 0.28770  0.25040  0.40370  Biso   1.000  H
  H663     1.0000 0.18420  0.08330  0.53090  Biso   1.000  H
  H664     1.0000 0.17510  0.10790  0.48430  Biso   1.000  H
  H665     1.0000 0.19360  0.05780  0.48480  Biso   1.000  H
  N286     1.0000 0.76200  0.61180  0.96230  Biso   1.000  N
  N287     1.0000 0.80260  0.62680  0.97707  Biso   1.000  N
  N288     1.0000 0.69440  0.64150  0.88060  Biso   1.000  N
  C96      1.0000 0.65550  0.62300  0.86480  Biso   1.000  C
  H666     1.0000 0.65170  0.59290  0.85540  Biso   1.000  H
  H667     1.0000 0.69800  0.73710  0.92580  Biso   1.000  H
  H668     1.0000 0.70790  0.74990  0.84360  Biso   1.000  H
  H669     1.0000 0.78770  0.75040  0.90370  Biso   1.000  H
  H670     1.0000 0.68420  0.58330  0.03090  Biso   1.000  H
  H671     1.0000 0.67510  0.60790  0.98430  Biso   1.000  H
  H672     1.0000 0.69360  0.55780  0.98480  Biso   1.000  H
  Zn1      1.0000 0.39483  0.10517  0.25000  Biso   1.000  Zn
  Zn2      1.0000 0.60517  0.89483  0.25000  Biso   1.000  Zn
  Zn3      1.0000 0.60517  0.10517  0.75000  Biso   1.000  Zn
  Zn4      1.0000 0.39483  0.89483  0.75000  Biso   1.000  Zn
  Zn5      1.0000 0.25000  0.39483  0.10517  Biso   1.000  Zn
  Zn6      1.0000 0.25000  0.60517  0.89483  Biso   1.000  Zn
  Zn7      1.0000 0.75000  0.60517  0.10517  Biso   1.000  Zn
  Zn8      1.0000 0.75000  0.39483  0.89483  Biso   1.000  Zn
  Zn9      1.0000 0.10517  0.25000  0.39483  Biso   1.000  Zn
  Zn10     1.0000 0.89483  0.25000  0.60517  Biso   1.000  Zn
  Zn11     1.0000 0.10517  0.75000  0.60517  Biso   1.000  Zn
  Zn12     1.0000 0.89483  0.75000  0.39483  Biso   1.000  Zn
  Zn13     1.0000 0.10517  0.39483  0.75000  Biso   1.000  Zn
  Zn14     1.0000 0.89483  0.60517  0.75000  Biso   1.000  Zn
  Zn15     1.0000 0.10517  0.60517  0.25000  Biso   1.000  Zn
  Zn16     1.0000 0.89483  0.39483  0.25000  Biso   1.000  Zn
  Zn17     1.0000 0.39483  0.25000  0.89483  Biso   1.000  Zn
  Zn18     1.0000 0.60517  0.25000  0.10517  Biso   1.000  Zn
  Zn19     1.0000 0.60517  0.75000  0.89483  Biso   1.000  Zn
  Zn20     1.0000 0.39483  0.75000  0.10517  Biso   1.000  Zn
  Zn21     1.0000 0.25000  0.10517  0.60517  Biso   1.000  Zn
  Zn22     1.0000 0.25000  0.89483  0.39483  Biso   1.000  Zn
  Zn23     1.0000 0.75000  0.10517  0.39483  Biso   1.000  Zn
  Zn24     1.0000 0.75000  0.89483  0.60517  Biso   1.000  Zn
  Zn25     1.0000 0.60517  0.89483  0.75000  Biso   1.000  Zn
  Zn26     1.0000 0.10517  0.39483  0.25000  Biso   1.000  Zn
  Zn27     1.0000 0.39483  0.10517  0.75000  Biso   1.000  Zn
  Zn28     1.0000 0.39483  0.89483  0.25000  Biso   1.000  Zn
  Zn29     1.0000 0.60517  0.10517  0.25000  Biso   1.000  Zn
  Zn30     1.0000 0.75000  0.60517  0.89483  Biso   1.000  Zn
  Zn31     1.0000 0.25000  0.10517  0.39483  Biso   1.000  Zn
  Zn32     1.0000 0.75000  0.39483  0.10517  Biso   1.000  Zn
  Zn33     1.0000 0.25000  0.39483  0.89483  Biso   1.000  Zn
  Zn34     1.0000 0.25000  0.60517  0.10517  Biso   1.000  Zn
  Zn35     1.0000 0.89483  0.75000  0.60517  Biso   1.000  Zn
  Zn36     1.0000 0.39483  0.25000  0.10517  Biso   1.000  Zn
  Zn37     1.0000 0.10517  0.75000  0.39483  Biso   1.000  Zn
  Zn38     1.0000 0.89483  0.25000  0.39483  Biso   1.000  Zn
  Zn39     1.0000 0.10517  0.25000  0.60517  Biso   1.000  Zn
  Zn40     1.0000 0.89483  0.60517  0.25000  Biso   1.000  Zn
  Zn41     1.0000 0.89483  0.39483  0.75000  Biso   1.000  Zn
  Zn42     1.0000 0.10517  0.60517  0.75000  Biso   1.000  Zn
  Zn43     1.0000 0.60517  0.75000  0.10517  Biso   1.000  Zn
  Zn44     1.0000 0.39483  0.75000  0.89483  Biso   1.000  Zn
  Zn45     1.0000 0.60517  0.25000  0.89483  Biso   1.000  Zn
  Zn46     1.0000 0.75000  0.89483  0.39483  Biso   1.000  Zn
  Zn47     1.0000 0.75000  0.10517  0.60517  Biso   1.000  Zn
  Zn48     1.0000 0.25000  0.89483  0.60517  Biso   1.000  Zn
  C97      1.0000 0.50000  0.10280  0.23780  Biso   1.000  C
  C98      1.0000 0.50000  0.08680  0.19450  Biso   1.000  C
  C99      1.0000 0.00000  0.60280  0.73780  Biso   1.000  C
  C100     1.0000 0.00000  0.58680  0.69450  Biso   1.000  C
  C101     1.0000 0.50000  0.89720  0.23780  Biso   1.000  C
  C102     1.0000 0.50000  0.91320  0.19450  Biso   1.000  C
  C103     1.0000 0.00000  0.39720  0.73780  Biso   1.000  C
  C104     1.0000 0.00000  0.41320  0.69450  Biso   1.000  C
  C105     1.0000 0.50000  0.10280  0.76220  Biso   1.000  C
  C106     1.0000 0.50000  0.08680  0.80550  Biso   1.000  C
  C107     1.0000 0.00000  0.60280  0.26220  Biso   1.000  C
  C108     1.0000 0.00000  0.58680  0.30550  Biso   1.000  C
  C109     1.0000 0.50000  0.89720  0.76220  Biso   1.000  C
  C110     1.0000 0.50000  0.91320  0.80550  Biso   1.000  C
  C111     1.0000 0.00000  0.39720  0.26220  Biso   1.000  C
  C112     1.0000 0.00000  0.41320  0.30550  Biso   1.000  C
  C113     1.0000 0.23780  0.50000  0.10280  Biso   1.000  C
  C114     1.0000 0.19450  0.50000  0.08680  Biso   1.000  C
  C115     1.0000 0.73780  0.00000  0.60280  Biso   1.000  C
  C116     1.0000 0.69450  0.00000  0.58680  Biso   1.000  C
  C117     1.0000 0.23780  0.50000  0.89720  Biso   1.000  C
  C118     1.0000 0.19450  0.50000  0.91320  Biso   1.000  C
  C119     1.0000 0.73780  0.00000  0.39720  Biso   1.000  C
  C120     1.0000 0.69450  0.00000  0.41320  Biso   1.000  C
  C121     1.0000 0.76220  0.50000  0.10280  Biso   1.000  C
  C122     1.0000 0.80550  0.50000  0.08680  Biso   1.000  C
  C123     1.0000 0.26220  0.00000  0.60280  Biso   1.000  C
  C124     1.0000 0.30550  0.00000  0.58680  Biso   1.000  C
  C125     1.0000 0.76220  0.50000  0.89720  Biso   1.000  C
  C126     1.0000 0.80550  0.50000  0.91320  Biso   1.000  C
  C127     1.0000 0.26220  0.00000  0.39720  Biso   1.000  C
  C128     1.0000 0.30550  0.00000  0.41320  Biso   1.000  C
  C129     1.0000 0.10280  0.23780  0.50000  Biso   1.000  C
  C130     1.0000 0.08680  0.19450  0.50000  Biso   1.000  C
  C131     1.0000 0.60280  0.73780  0.00000  Biso   1.000  C
  C132     1.0000 0.58680  0.69450  0.00000  Biso   1.000  C
  C133     1.0000 0.89720  0.23780  0.50000  Biso   1.000  C
  C134     1.0000 0.91320  0.19450  0.50000  Biso   1.000  C
  C135     1.0000 0.39720  0.73780  0.00000  Biso   1.000  C
  C136     1.0000 0.41320  0.69450  0.00000  Biso   1.000  C
  C137     1.0000 0.10280  0.76220  0.50000  Biso   1.000  C
  C138     1.0000 0.08680  0.80550  0.50000  Biso   1.000  C
  C139     1.0000 0.60280  0.26220  0.00000  Biso   1.000  C
  C140     1.0000 0.58680  0.30550  0.00000  Biso   1.000  C
  C141     1.0000 0.89720  0.76220  0.50000  Biso   1.000  C
  C142     1.0000 0.91320  0.80550  0.50000  Biso   1.000  C
  C143     1.0000 0.39720  0.26220  0.00000  Biso   1.000  C
  C144     1.0000 0.41320  0.30550  0.00000  Biso   1.000  C
  C145     1.0000 0.10280  0.50000  0.76220  Biso   1.000  C
  C146     1.0000 0.08680  0.50000  0.80550  Biso   1.000  C
  C147     1.0000 0.60280  0.00000  0.26220  Biso   1.000  C
  C148     1.0000 0.58680  0.00000  0.30550  Biso   1.000  C
  C149     1.0000 0.89720  0.50000  0.76220  Biso   1.000  C
  C150     1.0000 0.91320  0.50000  0.80550  Biso   1.000  C
  C151     1.0000 0.39720  0.00000  0.26220  Biso   1.000  C
  C152     1.0000 0.41320  0.00000  0.30550  Biso   1.000  C
  C153     1.0000 0.10280  0.50000  0.23780  Biso   1.000  C
  C154     1.0000 0.08680  0.50000  0.19450  Biso   1.000  C
  C155     1.0000 0.60280  0.00000  0.73780  Biso   1.000  C
  C156     1.0000 0.58680  0.00000  0.69450  Biso   1.000  C
  C157     1.0000 0.89720  0.50000  0.23780  Biso   1.000  C
  C158     1.0000 0.91320  0.50000  0.19450  Biso   1.000  C
  C159     1.0000 0.39720  0.00000  0.73780  Biso   1.000  C
  C160     1.0000 0.41320  0.00000  0.69450  Biso   1.000  C
  C161     1.0000 0.50000  0.23780  0.89720  Biso   1.000  C
  C162     1.0000 0.50000  0.19450  0.91320  Biso   1.000  C
  C163     1.0000 0.00000  0.73780  0.39720  Biso   1.000  C
  C164     1.0000 0.00000  0.69450  0.41320  Biso   1.000  C
  C165     1.0000 0.50000  0.23780  0.10280  Biso   1.000  C
  C166     1.0000 0.50000  0.19450  0.08680  Biso   1.000  C
  C167     1.0000 0.00000  0.73780  0.60280  Biso   1.000  C
  C168     1.0000 0.00000  0.69450  0.58680  Biso   1.000  C
  C169     1.0000 0.50000  0.76220  0.89720  Biso   1.000  C
  C170     1.0000 0.50000  0.80550  0.91320  Biso   1.000  C
  C171     1.0000 0.00000  0.26220  0.39720  Biso   1.000  C
  C172     1.0000 0.00000  0.30550  0.41320  Biso   1.000  C
  C173     1.0000 0.50000  0.76220  0.10280  Biso   1.000  C
  C174     1.0000 0.50000  0.80550  0.08680  Biso   1.000  C
  C175     1.0000 0.00000  0.26220  0.60280  Biso   1.000  C
  C176     1.0000 0.00000  0.30550  0.58680  Biso   1.000  C
  C177     1.0000 0.23780  0.10280  0.50000  Biso   1.000  C
  C178     1.0000 0.19450  0.08680  0.50000  Biso   1.000  C
  C179     1.0000 0.73780  0.60280  0.00000  Biso   1.000  C
  C180     1.0000 0.69450  0.58680  0.00000  Biso   1.000  C
  C181     1.0000 0.23780  0.89720  0.50000  Biso   1.000  C
  C182     1.0000 0.19450  0.91320  0.50000  Biso   1.000  C
  C183     1.0000 0.73780  0.39720  0.00000  Biso   1.000  C
  C184     1.0000 0.69450  0.41320  0.00000  Biso   1.000  C
  C185     1.0000 0.76220  0.10280  0.50000  Biso   1.000  C
  C186     1.0000 0.80550  0.08680  0.50000  Biso   1.000  C
  C187     1.0000 0.26220  0.60280  0.00000  Biso   1.000  C
  C188     1.0000 0.30550  0.58680  0.00000  Biso   1.000  C
  C189     1.0000 0.76220  0.89720  0.50000  Biso   1.000  C
  C190     1.0000 0.80550  0.91320  0.50000  Biso   1.000  C
  C191     1.0000 0.26220  0.39720  0.00000  Biso   1.000  C
  C192     1.0000 0.30550  0.41320  0.00000  Biso   1.000  C
  C193     1.0000 0.39010  0.18550  0.18550  Biso   1.000  C
  C194     1.0000 0.40680  0.21610  0.21610  Biso   1.000  C
  C195     1.0000 0.36080  0.23420  0.23420  Biso   1.000  C
  C196     1.0000 0.38510  0.26700  0.26700  Biso   1.000  C
  H673     1.0000 0.36170  0.28295  0.28295  Biso   1.000  H
  C197     1.0000 0.89010  0.68550  0.68550  Biso   1.000  C
  C198     1.0000 0.90680  0.71610  0.71610  Biso   1.000  C
  C199     1.0000 0.86080  0.73420  0.73420  Biso   1.000  C
  C200     1.0000 0.88510  0.76700  0.76700  Biso   1.000  C
  H674     1.0000 0.86170  0.78295  0.78295  Biso   1.000  H
  C201     1.0000 0.60990  0.81450  0.18550  Biso   1.000  C
  C202     1.0000 0.59320  0.78390  0.21610  Biso   1.000  C
  C203     1.0000 0.63920  0.76580  0.23420  Biso   1.000  C
  C204     1.0000 0.61490  0.73300  0.26700  Biso   1.000  C
  H675     1.0000 0.63830  0.71705  0.28295  Biso   1.000  H
  C205     1.0000 0.10990  0.31450  0.68550  Biso   1.000  C
  C206     1.0000 0.09320  0.28390  0.71610  Biso   1.000  C
  C207     1.0000 0.13920  0.26580  0.73420  Biso   1.000  C
  C208     1.0000 0.11490  0.23300  0.76700  Biso   1.000  C
  H676     1.0000 0.13830  0.21705  0.78295  Biso   1.000  H
  C209     1.0000 0.60990  0.18550  0.81450  Biso   1.000  C
  C210     1.0000 0.59320  0.21610  0.78390  Biso   1.000  C
  C211     1.0000 0.63920  0.23420  0.76580  Biso   1.000  C
  C212     1.0000 0.61490  0.26700  0.73300  Biso   1.000  C
  H677     1.0000 0.63830  0.28295  0.71705  Biso   1.000  H
  C213     1.0000 0.10990  0.68550  0.31450  Biso   1.000  C
  C214     1.0000 0.09320  0.71610  0.28390  Biso   1.000  C
  C215     1.0000 0.13920  0.73420  0.26580  Biso   1.000  C
  C216     1.0000 0.11490  0.76700  0.23300  Biso   1.000  C
  H678     1.0000 0.13830  0.78295  0.21705  Biso   1.000  H
  C217     1.0000 0.39010  0.81450  0.81450  Biso   1.000  C
  C218     1.0000 0.40680  0.78390  0.78390  Biso   1.000  C
  C219     1.0000 0.36080  0.76580  0.76580  Biso   1.000  C
  C220     1.0000 0.38510  0.73300  0.73300  Biso   1.000  C
  H679     1.0000 0.36170  0.71705  0.71705  Biso   1.000  H
  C221     1.0000 0.89010  0.31450  0.31450  Biso   1.000  C
  C222     1.0000 0.90680  0.28390  0.28390  Biso   1.000  C
  C223     1.0000 0.86080  0.26580  0.26580  Biso   1.000  C
  C224     1.0000 0.88510  0.23300  0.23300  Biso   1.000  C
  H680     1.0000 0.86170  0.21705  0.21705  Biso   1.000  H
  C225     1.0000 0.18550  0.39010  0.18550  Biso   1.000  C
  C226     1.0000 0.21610  0.40680  0.21610  Biso   1.000  C
  C227     1.0000 0.23420  0.36080  0.23420  Biso   1.000  C
  C228     1.0000 0.26700  0.38510  0.26700  Biso   1.000  C
  H681     1.0000 0.28295  0.36170  0.28295  Biso   1.000  H
  C229     1.0000 0.68550  0.89010  0.68550  Biso   1.000  C
  C230     1.0000 0.71610  0.90680  0.71610  Biso   1.000  C
  C231     1.0000 0.73420  0.86080  0.73420  Biso   1.000  C
  C232     1.0000 0.76700  0.88510  0.76700  Biso   1.000  C
  H682     1.0000 0.78295  0.86170  0.78295  Biso   1.000  H
  C233     1.0000 0.18550  0.60990  0.81450  Biso   1.000  C
  C234     1.0000 0.21610  0.59320  0.78390  Biso   1.000  C
  C235     1.0000 0.23420  0.63920  0.76580  Biso   1.000  C
  C236     1.0000 0.26700  0.61490  0.73300  Biso   1.000  C
  H683     1.0000 0.28295  0.63830  0.71705  Biso   1.000  H
  C237     1.0000 0.68550  0.10990  0.31450  Biso   1.000  C
  C238     1.0000 0.71610  0.09320  0.28390  Biso   1.000  C
  C239     1.0000 0.73420  0.13920  0.26580  Biso   1.000  C
  C240     1.0000 0.76700  0.11490  0.23300  Biso   1.000  C
  H684     1.0000 0.78295  0.13830  0.21705  Biso   1.000  H
  C241     1.0000 0.81450  0.60990  0.18550  Biso   1.000  C
  C242     1.0000 0.78390  0.59320  0.21610  Biso   1.000  C
  C243     1.0000 0.76580  0.63920  0.23420  Biso   1.000  C
  C244     1.0000 0.73300  0.61490  0.26700  Biso   1.000  C
  H685     1.0000 0.71705  0.63830  0.28295  Biso   1.000  H
  C245     1.0000 0.31450  0.10990  0.68550  Biso   1.000  C
  C246     1.0000 0.28390  0.09320  0.71610  Biso   1.000  C
  C247     1.0000 0.26580  0.13920  0.73420  Biso   1.000  C
  C248     1.0000 0.23300  0.11490  0.76700  Biso   1.000  C
  H686     1.0000 0.21705  0.13830  0.78295  Biso   1.000  H
  C249     1.0000 0.81450  0.39010  0.81450  Biso   1.000  C
  C250     1.0000 0.78390  0.40680  0.78390  Biso   1.000  C
  C251     1.0000 0.76580  0.36080  0.76580  Biso   1.000  C
  C252     1.0000 0.73300  0.38510  0.73300  Biso   1.000  C
  H687     1.0000 0.71705  0.36170  0.71705  Biso   1.000  H
  C253     1.0000 0.31450  0.89010  0.31450  Biso   1.000  C
  C254     1.0000 0.28390  0.90680  0.28390  Biso   1.000  C
  C255     1.0000 0.26580  0.86080  0.26580  Biso   1.000  C
  C256     1.0000 0.23300  0.88510  0.23300  Biso   1.000  C
  H688     1.0000 0.21705  0.86170  0.21705  Biso   1.000  H
  C257     1.0000 0.18550  0.18550  0.39010  Biso   1.000  C
  C258     1.0000 0.21610  0.21610  0.40680  Biso   1.000  C
  C259     1.0000 0.23420  0.23420  0.36080  Biso   1.000  C
  C260     1.0000 0.26700  0.26700  0.38510  Biso   1.000  C
  H689     1.0000 0.28295  0.28295  0.36170  Biso   1.000  H
  C261     1.0000 0.68550  0.68550  0.89010  Biso   1.000  C
  C262     1.0000 0.71610  0.71610  0.90680  Biso   1.000  C
  C263     1.0000 0.73420  0.73420  0.86080  Biso   1.000  C
  C264     1.0000 0.76700  0.76700  0.88510  Biso   1.000  C
  H690     1.0000 0.78295  0.78295  0.86170  Biso   1.000  H
  C265     1.0000 0.81450  0.18550  0.60990  Biso   1.000  C
  C266     1.0000 0.78390  0.21610  0.59320  Biso   1.000  C
  C267     1.0000 0.76580  0.23420  0.63920  Biso   1.000  C
  C268     1.0000 0.73300  0.26700  0.61490  Biso   1.000  C
  H691     1.0000 0.71705  0.28295  0.63830  Biso   1.000  H
  C269     1.0000 0.31450  0.68550  0.10990  Biso   1.000  C
  C270     1.0000 0.28390  0.71610  0.09320  Biso   1.000  C
  C271     1.0000 0.26580  0.73420  0.13920  Biso   1.000  C
  C272     1.0000 0.23300  0.76700  0.11490  Biso   1.000  C
  H692     1.0000 0.21705  0.78295  0.13830  Biso   1.000  H
  C273     1.0000 0.18550  0.81450  0.60990  Biso   1.000  C
  C274     1.0000 0.21610  0.78390  0.59320  Biso   1.000  C
  C275     1.0000 0.23420  0.76580  0.63920  Biso   1.000  C
  C276     1.0000 0.26700  0.73300  0.61490  Biso   1.000  C
  H693     1.0000 0.28295  0.71705  0.63830  Biso   1.000  H
  C277     1.0000 0.68550  0.31450  0.10990  Biso   1.000  C
  C278     1.0000 0.71610  0.28390  0.09320  Biso   1.000  C
  C279     1.0000 0.73420  0.26580  0.13920  Biso   1.000  C
  C280     1.0000 0.76700  0.23300  0.11490  Biso   1.000  C
  H694     1.0000 0.78295  0.21705  0.13830  Biso   1.000  H
  C281     1.0000 0.81450  0.81450  0.39010  Biso   1.000  C
  C282     1.0000 0.78390  0.78390  0.40680  Biso   1.000  C
  C283     1.0000 0.76580  0.76580  0.36080  Biso   1.000  C
  C284     1.0000 0.73300  0.73300  0.38510  Biso   1.000  C
  H695     1.0000 0.71705  0.71705  0.36170  Biso   1.000  H
  C285     1.0000 0.31450  0.31450  0.89010  Biso   1.000  C
  C286     1.0000 0.28390  0.28390  0.90680  Biso   1.000  C
  C287     1.0000 0.26580  0.26580  0.86080  Biso   1.000  C
  C288     1.0000 0.23300  0.23300  0.88510  Biso   1.000  C
  H696     1.0000 0.21705  0.21705  0.86170  Biso   1.000  H
  C289     1.0000 0.18550  0.39010  0.81450  Biso   1.000  C
  C290     1.0000 0.21610  0.40680  0.78390  Biso   1.000  C
  C291     1.0000 0.23420  0.36080  0.76580  Biso   1.000  C
  C292     1.0000 0.26700  0.38510  0.73300  Biso   1.000  C
  H697     1.0000 0.28295  0.36170  0.71705  Biso   1.000  H
  C293     1.0000 0.68550  0.89010  0.31450  Biso   1.000  C
  C294     1.0000 0.71610  0.90680  0.28390  Biso   1.000  C
  C295     1.0000 0.73420  0.86080  0.26580  Biso   1.000  C
  C296     1.0000 0.76700  0.88510  0.23300  Biso   1.000  C
  H698     1.0000 0.78295  0.86170  0.21705  Biso   1.000  H
  C297     1.0000 0.81450  0.60990  0.81450  Biso   1.000  C
  C298     1.0000 0.78390  0.59320  0.78390  Biso   1.000  C
  C299     1.0000 0.76580  0.63920  0.76580  Biso   1.000  C
  C300     1.0000 0.73300  0.61490  0.73300  Biso   1.000  C
  H699     1.0000 0.71705  0.63830  0.71705  Biso   1.000  H
  C301     1.0000 0.31450  0.10990  0.31450  Biso   1.000  C
  C302     1.0000 0.28390  0.09320  0.28390  Biso   1.000  C
  C303     1.0000 0.26580  0.13920  0.26580  Biso   1.000  C
  C304     1.0000 0.23300  0.11490  0.23300  Biso   1.000  C
  H700     1.0000 0.21705  0.13830  0.21705  Biso   1.000  H
  C305     1.0000 0.18550  0.60990  0.18550  Biso   1.000  C
  C306     1.0000 0.21610  0.59320  0.21610  Biso   1.000  C
  C307     1.0000 0.23420  0.63920  0.23420  Biso   1.000  C
  C308     1.0000 0.26700  0.61490  0.26700  Biso   1.000  C
  H701     1.0000 0.28295  0.63830  0.28295  Biso   1.000  H
  C309     1.0000 0.68550  0.10990  0.68550  Biso   1.000  C
  C310     1.0000 0.71610  0.09320  0.71610  Biso   1.000  C
  C311     1.0000 0.73420  0.13920  0.73420  Biso   1.000  C
  C312     1.0000 0.76700  0.11490  0.76700  Biso   1.000  C
  H702     1.0000 0.78295  0.13830  0.78295  Biso   1.000  H
  C313     1.0000 0.81450  0.39010  0.18550  Biso   1.000  C
  C314     1.0000 0.78390  0.40680  0.21610  Biso   1.000  C
  C315     1.0000 0.76580  0.36080  0.23420  Biso   1.000  C
  C316     1.0000 0.73300  0.38510  0.26700  Biso   1.000  C
  H703     1.0000 0.71705  0.36170  0.28295  Biso   1.000  H
  C317     1.0000 0.31450  0.89010  0.68550  Biso   1.000  C
  C318     1.0000 0.28390  0.90680  0.71610  Biso   1.000  C
  C319     1.0000 0.26580  0.86080  0.73420  Biso   1.000  C
  C320     1.0000 0.23300  0.88510  0.76700  Biso   1.000  C
  H704     1.0000 0.21705  0.86170  0.78295  Biso   1.000  H
  C321     1.0000 0.39010  0.18550  0.81450  Biso   1.000  C
  C322     1.0000 0.40680  0.21610  0.78390  Biso   1.000  C
  C323     1.0000 0.36080  0.23420  0.76580  Biso   1.000  C
  C324     1.0000 0.38510  0.26700  0.73300  Biso   1.000  C
  H705     1.0000 0.36170  0.28295  0.71705  Biso   1.000  H
  C325     1.0000 0.89010  0.68550  0.31450  Biso   1.000  C
  C326     1.0000 0.90680  0.71610  0.28390  Biso   1.000  C
  C327     1.0000 0.86080  0.73420  0.26580  Biso   1.000  C
  C328     1.0000 0.88510  0.76700  0.23300  Biso   1.000  C
  H706     1.0000 0.86170  0.78295  0.21705  Biso   1.000  H
  C329     1.0000 0.60990  0.18550  0.18550  Biso   1.000  C
  C330     1.0000 0.59320  0.21610  0.21610  Biso   1.000  C
  C331     1.0000 0.63920  0.23420  0.23420  Biso   1.000  C
  C332     1.0000 0.61490  0.26700  0.26700  Biso   1.000  C
  H707     1.0000 0.63830  0.28295  0.28295  Biso   1.000  H
  C333     1.0000 0.10990  0.68550  0.68550  Biso   1.000  C
  C334     1.0000 0.09320  0.71610  0.71610  Biso   1.000  C
  C335     1.0000 0.13920  0.73420  0.73420  Biso   1.000  C
  C336     1.0000 0.11490  0.76700  0.76700  Biso   1.000  C
  H708     1.0000 0.13830  0.78295  0.78295  Biso   1.000  H
  C337     1.0000 0.60990  0.81450  0.81450  Biso   1.000  C
  C338     1.0000 0.59320  0.78390  0.78390  Biso   1.000  C
  C339     1.0000 0.63920  0.76580  0.76580  Biso   1.000  C
  C340     1.0000 0.61490  0.73300  0.73300  Biso   1.000  C
  H709     1.0000 0.63830  0.71705  0.71705  Biso   1.000  H
  C341     1.0000 0.10990  0.31450  0.31450  Biso   1.000  C
  C342     1.0000 0.09320  0.28390  0.28390  Biso   1.000  C
  C343     1.0000 0.13920  0.26580  0.26580  Biso   1.000  C
  C344     1.0000 0.11490  0.23300  0.23300  Biso   1.000  C
  H710     1.0000 0.13830  0.21705  0.21705  Biso   1.000  H
  C345     1.0000 0.39010  0.81450  0.18550  Biso   1.000  C
  C346     1.0000 0.40680  0.78390  0.21610  Biso   1.000  C
  C347     1.0000 0.36080  0.76580  0.23420  Biso   1.000  C
  C348     1.0000 0.38510  0.73300  0.26700  Biso   1.000  C
  H711     1.0000 0.36170  0.71705  0.28295  Biso   1.000  H
  C349     1.0000 0.89010  0.31450  0.68550  Biso   1.000  C
  C350     1.0000 0.90680  0.28390  0.71610  Biso   1.000  C
  C351     1.0000 0.86080  0.26580  0.73420  Biso   1.000  C
  C352     1.0000 0.88510  0.23300  0.76700  Biso   1.000  C
  H712     1.0000 0.86170  0.21705  0.78295  Biso   1.000  H
  C353     1.0000 0.18550  0.18550  0.60990  Biso   1.000  C
  C354     1.0000 0.21610  0.21610  0.59320  Biso   1.000  C
  C355     1.0000 0.23420  0.23420  0.63920  Biso   1.000  C
  C356     1.0000 0.26700  0.26700  0.61490  Biso   1.000  C
  H713     1.0000 0.28295  0.28295  0.63830  Biso   1.000  H
  C357     1.0000 0.68550  0.68550  0.10990  Biso   1.000  C
  C358     1.0000 0.71610  0.71610  0.09320  Biso   1.000  C
  C359     1.0000 0.73420  0.73420  0.13920  Biso   1.000  C
  C360     1.0000 0.76700  0.76700  0.11490  Biso   1.000  C
  H714     1.0000 0.78295  0.78295  0.13830  Biso   1.000  H
  C361     1.0000 0.18550  0.81450  0.39010  Biso   1.000  C
  C362     1.0000 0.21610  0.78390  0.40680  Biso   1.000  C
  C363     1.0000 0.23420  0.76580  0.36080  Biso   1.000  C
  C364     1.0000 0.26700  0.73300  0.38510  Biso   1.000  C
  H715     1.0000 0.28295  0.71705  0.36170  Biso   1.000  H
  C365     1.0000 0.68550  0.31450  0.89010  Biso   1.000  C
  C366     1.0000 0.71610  0.28390  0.90680  Biso   1.000  C
  C367     1.0000 0.73420  0.26580  0.86080  Biso   1.000  C
  C368     1.0000 0.76700  0.23300  0.88510  Biso   1.000  C
  H716     1.0000 0.78295  0.21705  0.86170  Biso   1.000  H
  C369     1.0000 0.81450  0.18550  0.39010  Biso   1.000  C
  C370     1.0000 0.78390  0.21610  0.40680  Biso   1.000  C
  C371     1.0000 0.76580  0.23420  0.36080  Biso   1.000  C
  C372     1.0000 0.73300  0.26700  0.38510  Biso   1.000  C
  H717     1.0000 0.71705  0.28295  0.36170  Biso   1.000  H
  C373     1.0000 0.31450  0.68550  0.89010  Biso   1.000  C
  C374     1.0000 0.28390  0.71610  0.90680  Biso   1.000  C
  C375     1.0000 0.26580  0.73420  0.86080  Biso   1.000  C
  C376     1.0000 0.23300  0.76700  0.88510  Biso   1.000  C
  H718     1.0000 0.21705  0.78295  0.86170  Biso   1.000  H
  C377     1.0000 0.81450  0.81450  0.60990  Biso   1.000  C
  C378     1.0000 0.78390  0.78390  0.59320  Biso   1.000  C
  C379     1.0000 0.76580  0.76580  0.63920  Biso   1.000  C
  C380     1.0000 0.73300  0.73300  0.61490  Biso   1.000  C
  H719     1.0000 0.71705  0.71705  0.63830  Biso   1.000  H
  C381     1.0000 0.31450  0.31450  0.10990  Biso   1.000  C
  C382     1.0000 0.28390  0.28390  0.09320  Biso   1.000  C
  C383     1.0000 0.26580  0.26580  0.13920  Biso   1.000  C
  C384     1.0000 0.23300  0.23300  0.11490  Biso   1.000  C
  H720     1.0000 0.21705  0.21705  0.13830  Biso   1.000  H
