data_image0
_cell_length_a       24.6663
_cell_length_b       24.6663
_cell_length_c       17.6314
_cell_angle_alpha    90
_cell_angle_beta     90
_cell_angle_gamma    90

_symmetry_space_group_name_H-M    "P 1"
_symmetry_int_tables_number       1

loop_
  _symmetry_equiv_pos_as_xyz
  'x, y, z'

loop_
  _atom_site_label
  _atom_site_occupancy
  _atom_site_fract_x
  _atom_site_fract_y
  _atom_site_fract_z
  _atom_site_thermal_displace_type
  _atom_site_B_iso_or_equiv
  _atom_site_type_symbol
  Ni1      1.0000 0.25915  0.01862  0.02529  Biso   1.000  Ni
  O1       1.0000 0.30204  0.86192  0.96500  Biso   1.000  O
  O2       1.0000 0.25859  0.18571  0.03860  Biso   1.000  O
  N1       1.0000 0.18531  0.01434  0.99043  Biso   1.000  N
  N2       1.0000 0.26397  0.94360  0.99867  Biso   1.000  N
  N3       1.0000 0.24342  0.09399  0.03830  Biso   1.000  N
  N4       1.0000 0.35685  0.93279  0.99479  Biso   1.000  N
  H1       1.0000 0.35660  0.96030  0.01540  Biso   1.000  H
  N5       1.0000 0.32947  0.12794  0.02270  Biso   1.000  N
  H2       1.0000 0.33830  0.09670  0.03630  Biso   1.000  H
  C1       1.0000 0.16799  0.95770  0.00346  Biso   1.000  C
  H3       1.0000 0.13380  0.95040  0.97590  Biso   1.000  H
  H4       1.0000 0.16150  0.95170  0.05820  Biso   1.000  H
  C2       1.0000 0.21196  0.91991  0.97563  Biso   1.000  C
  H5       1.0000 0.20750  0.88350  0.99840  Biso   1.000  H
  H6       1.0000 0.21030  0.91640  0.91970  Biso   1.000  H
  C3       1.0000 0.30670  0.91043  0.98614  Biso   1.000  C
  C4       1.0000 0.40658  0.90144  0.98955  Biso   1.000  C
  H7       1.0000 0.40150  0.87330  0.94940  Biso   1.000  H
  C5       1.0000 0.42052  0.87276  0.06298  Biso   1.000  C
  H8       1.0000 0.39060  0.84870  0.07740  Biso   1.000  H
  H9       1.0000 0.42640  0.89970  0.10300  Biso   1.000  H
  H10      1.0000 0.45360  0.85130  0.05600  Biso   1.000  H
  C6       1.0000 0.45128  0.93921  0.96399  Biso   1.000  C
  H11      1.0000 0.44070  0.95680  0.91640  Biso   1.000  H
  H12      1.0000 0.48470  0.91840  0.95610  Biso   1.000  H
  H13      1.0000 0.45750  0.96690  0.00300  Biso   1.000  H
  C7       1.0000 0.15593  0.05267  0.04036  Biso   1.000  C
  H14      1.0000 0.15470  0.03840  0.09280  Biso   1.000  H
  H15      1.0000 0.11820  0.05740  0.02220  Biso   1.000  H
  C8       1.0000 0.18536  0.10655  0.03904  Biso   1.000  C
  H16      1.0000 0.17520  0.12750  0.99330  Biso   1.000  H
  H17      1.0000 0.17600  0.12820  0.08450  Biso   1.000  H
  C9       1.0000 0.27578  0.13759  0.03502  Biso   1.000  C
  C10      1.0000 0.37095  0.16868  0.03261  Biso   1.000  C
  H18      1.0000 0.35510  0.20580  0.02750  Biso   1.000  H
  C11      1.0000 0.40420  0.16530  0.10010  Biso   1.000  C
  H19      1.0000 0.38190  0.17290  0.14490  Biso   1.000  H
  H20      1.0000 0.43360  0.19200  0.09690  Biso   1.000  H
  H21      1.0000 0.41970  0.12880  0.10420  Biso   1.000  H
  C12      1.0000 0.41290  0.15560  0.95990  Biso   1.000  C
  H22      1.0000 0.39260  0.15710  0.91220  Biso   1.000  H
  H23      1.0000 0.42860  0.11940  0.96610  Biso   1.000  H
  H24      1.0000 0.44190  0.18270  0.95890  Biso   1.000  H
  C13      1.0000 0.17893  0.02962  0.90933  Biso   1.000  C
  H25      1.0000 0.19060  0.06720  0.90210  Biso   1.000  H
  H26      1.0000 0.14080  0.02610  0.89460  Biso   1.000  H
  H27      1.0000 0.20120  0.00560  0.87780  Biso   1.000  H
  C14      1.0000 0.37060  0.18430  0.12430  Biso   1.000  C
  C15      1.0000 0.42110  0.15260  0.00810  Biso   1.000  C
  H28      1.0000 0.36040  0.20020  0.00420  Biso   1.000  H
  H29      1.0000 0.33390  0.19530  0.13940  Biso   1.000  H
  H30      1.0000 0.39590  0.21430  0.13350  Biso   1.000  H
  H31      1.0000 0.38170  0.15270  0.15400  Biso   1.000  H
  H32      1.0000 0.41950  0.14390  0.95400  Biso   1.000  H
  H33      1.0000 0.43260  0.12050  0.03660  Biso   1.000  H
  H34      1.0000 0.44720  0.18200  0.01630  Biso   1.000  H
  Ni2      1.0000 0.75915  0.51862  0.52529  Biso   1.000  Ni
  O3       1.0000 0.80204  0.36192  0.46500  Biso   1.000  O
  O4       1.0000 0.75859  0.68571  0.53860  Biso   1.000  O
  N6       1.0000 0.68531  0.51434  0.49043  Biso   1.000  N
  N7       1.0000 0.76397  0.44360  0.49867  Biso   1.000  N
  N8       1.0000 0.74342  0.59399  0.53830  Biso   1.000  N
  N9       1.0000 0.85685  0.43279  0.49479  Biso   1.000  N
  H35      1.0000 0.85660  0.46030  0.51540  Biso   1.000  H
  N10      1.0000 0.82947  0.62794  0.52270  Biso   1.000  N
  H36      1.0000 0.83830  0.59670  0.53630  Biso   1.000  H
  C16      1.0000 0.66799  0.45770  0.50346  Biso   1.000  C
  H37      1.0000 0.63380  0.45040  0.47590  Biso   1.000  H
  H38      1.0000 0.66150  0.45170  0.55820  Biso   1.000  H
  C17      1.0000 0.71196  0.41991  0.47563  Biso   1.000  C
  H39      1.0000 0.70750  0.38350  0.49840  Biso   1.000  H
  H40      1.0000 0.71030  0.41640  0.41970  Biso   1.000  H
  C18      1.0000 0.80670  0.41043  0.48614  Biso   1.000  C
  C19      1.0000 0.90658  0.40144  0.48955  Biso   1.000  C
  H41      1.0000 0.90150  0.37330  0.44940  Biso   1.000  H
  C20      1.0000 0.92052  0.37276  0.56298  Biso   1.000  C
  H42      1.0000 0.89060  0.34870  0.57740  Biso   1.000  H
  H43      1.0000 0.92640  0.39970  0.60300  Biso   1.000  H
  H44      1.0000 0.95360  0.35130  0.55600  Biso   1.000  H
  C21      1.0000 0.95128  0.43921  0.46399  Biso   1.000  C
  H45      1.0000 0.94070  0.45680  0.41640  Biso   1.000  H
  H46      1.0000 0.98470  0.41840  0.45610  Biso   1.000  H
  H47      1.0000 0.95750  0.46690  0.50300  Biso   1.000  H
  C22      1.0000 0.65593  0.55267  0.54036  Biso   1.000  C
  H48      1.0000 0.65470  0.53840  0.59280  Biso   1.000  H
  H49      1.0000 0.61820  0.55740  0.52220  Biso   1.000  H
  C23      1.0000 0.68536  0.60655  0.53904  Biso   1.000  C
  H50      1.0000 0.67520  0.62750  0.49330  Biso   1.000  H
  H51      1.0000 0.67600  0.62820  0.58450  Biso   1.000  H
  C24      1.0000 0.77578  0.63759  0.53502  Biso   1.000  C
  C25      1.0000 0.87095  0.66868  0.53261  Biso   1.000  C
  H52      1.0000 0.85510  0.70580  0.52750  Biso   1.000  H
  C26      1.0000 0.90420  0.66530  0.60010  Biso   1.000  C
  H53      1.0000 0.88190  0.67290  0.64490  Biso   1.000  H
  H54      1.0000 0.93360  0.69200  0.59690  Biso   1.000  H
  H55      1.0000 0.91970  0.62880  0.60420  Biso   1.000  H
  C27      1.0000 0.91290  0.65560  0.45990  Biso   1.000  C
  H56      1.0000 0.89260  0.65710  0.41220  Biso   1.000  H
  H57      1.0000 0.92860  0.61940  0.46610  Biso   1.000  H
  H58      1.0000 0.94190  0.68270  0.45890  Biso   1.000  H
  C28      1.0000 0.67893  0.52962  0.40933  Biso   1.000  C
  H59      1.0000 0.69060  0.56720  0.40210  Biso   1.000  H
  H60      1.0000 0.64080  0.52610  0.39460  Biso   1.000  H
  H61      1.0000 0.70120  0.50560  0.37780  Biso   1.000  H
  C29      1.0000 0.87060  0.68430  0.62430  Biso   1.000  C
  C30      1.0000 0.92110  0.65260  0.50810  Biso   1.000  C
  H62      1.0000 0.86040  0.70020  0.50420  Biso   1.000  H
  H63      1.0000 0.83390  0.69530  0.63940  Biso   1.000  H
  H64      1.0000 0.89590  0.71430  0.63350  Biso   1.000  H
  H65      1.0000 0.88170  0.65270  0.65400  Biso   1.000  H
  H66      1.0000 0.91950  0.64390  0.45400  Biso   1.000  H
  H67      1.0000 0.93260  0.62050  0.53660  Biso   1.000  H
  H68      1.0000 0.94720  0.68200  0.51630  Biso   1.000  H
  Ni3      1.0000 0.74085  0.98138  0.02529  Biso   1.000  Ni
  O5       1.0000 0.69796  0.13808  0.96500  Biso   1.000  O
  O6       1.0000 0.74141  0.81429  0.03860  Biso   1.000  O
  N11      1.0000 0.81469  0.98566  0.99043  Biso   1.000  N
  N12      1.0000 0.73603  0.05640  0.99867  Biso   1.000  N
  N13      1.0000 0.75658  0.90601  0.03830  Biso   1.000  N
  N14      1.0000 0.64315  0.06721  0.99479  Biso   1.000  N
  H69      1.0000 0.64340  0.03970  0.01540  Biso   1.000  H
  N15      1.0000 0.67053  0.87206  0.02270  Biso   1.000  N
  H70      1.0000 0.66170  0.90330  0.03630  Biso   1.000  H
  C31      1.0000 0.83201  0.04230  0.00346  Biso   1.000  C
  H71      1.0000 0.86620  0.04960  0.97590  Biso   1.000  H
  H72      1.0000 0.83850  0.04830  0.05820  Biso   1.000  H
  C32      1.0000 0.78804  0.08009  0.97563  Biso   1.000  C
  H73      1.0000 0.79250  0.11650  0.99840  Biso   1.000  H
  H74      1.0000 0.78970  0.08360  0.91970  Biso   1.000  H
  C33      1.0000 0.69330  0.08957  0.98614  Biso   1.000  C
  C34      1.0000 0.59342  0.09856  0.98955  Biso   1.000  C
  H75      1.0000 0.59850  0.12670  0.94940  Biso   1.000  H
  C35      1.0000 0.57948  0.12724  0.06298  Biso   1.000  C
  H76      1.0000 0.60940  0.15130  0.07740  Biso   1.000  H
  H77      1.0000 0.57360  0.10030  0.10300  Biso   1.000  H
  H78      1.0000 0.54640  0.14870  0.05600  Biso   1.000  H
  C36      1.0000 0.54872  0.06079  0.96399  Biso   1.000  C
  H79      1.0000 0.55930  0.04320  0.91640  Biso   1.000  H
  H80      1.0000 0.51530  0.08160  0.95610  Biso   1.000  H
  H81      1.0000 0.54250  0.03310  0.00300  Biso   1.000  H
  C37      1.0000 0.84407  0.94733  0.04036  Biso   1.000  C
  H82      1.0000 0.84530  0.96160  0.09280  Biso   1.000  H
  H83      1.0000 0.88180  0.94260  0.02220  Biso   1.000  H
  C38      1.0000 0.81464  0.89345  0.03904  Biso   1.000  C
  H84      1.0000 0.82480  0.87250  0.99330  Biso   1.000  H
  H85      1.0000 0.82400  0.87180  0.08450  Biso   1.000  H
  C39      1.0000 0.72422  0.86241  0.03502  Biso   1.000  C
  C40      1.0000 0.62905  0.83132  0.03261  Biso   1.000  C
  H86      1.0000 0.64490  0.79420  0.02750  Biso   1.000  H
  C41      1.0000 0.59580  0.83470  0.10010  Biso   1.000  C
  H87      1.0000 0.61810  0.82710  0.14490  Biso   1.000  H
  H88      1.0000 0.56640  0.80800  0.09690  Biso   1.000  H
  H89      1.0000 0.58030  0.87120  0.10420  Biso   1.000  H
  C42      1.0000 0.58710  0.84440  0.95990  Biso   1.000  C
  H90      1.0000 0.60740  0.84290  0.91220  Biso   1.000  H
  H91      1.0000 0.57140  0.88060  0.96610  Biso   1.000  H
  H92      1.0000 0.55810  0.81730  0.95890  Biso   1.000  H
  C43      1.0000 0.82107  0.97038  0.90933  Biso   1.000  C
  H93      1.0000 0.80940  0.93280  0.90210  Biso   1.000  H
  H94      1.0000 0.85920  0.97390  0.89460  Biso   1.000  H
  H95      1.0000 0.79880  0.99440  0.87780  Biso   1.000  H
  C44      1.0000 0.62940  0.81570  0.12430  Biso   1.000  C
  C45      1.0000 0.57890  0.84740  0.00810  Biso   1.000  C
  H96      1.0000 0.63960  0.79980  0.00420  Biso   1.000  H
  H97      1.0000 0.66610  0.80470  0.13940  Biso   1.000  H
  H98      1.0000 0.60410  0.78570  0.13350  Biso   1.000  H
  H99      1.0000 0.61830  0.84730  0.15400  Biso   1.000  H
  H100     1.0000 0.58050  0.85610  0.95400  Biso   1.000  H
  H101     1.0000 0.56740  0.87950  0.03660  Biso   1.000  H
  H102     1.0000 0.55280  0.81800  0.01630  Biso   1.000  H
  Ni4      1.0000 0.24085  0.48138  0.52529  Biso   1.000  Ni
  O7       1.0000 0.19796  0.63808  0.46500  Biso   1.000  O
  O8       1.0000 0.24141  0.31429  0.53860  Biso   1.000  O
  N16      1.0000 0.31469  0.48566  0.49043  Biso   1.000  N
  N17      1.0000 0.23603  0.55640  0.49867  Biso   1.000  N
  N18      1.0000 0.25658  0.40601  0.53830  Biso   1.000  N
  N19      1.0000 0.14315  0.56721  0.49479  Biso   1.000  N
  H103     1.0000 0.14340  0.53970  0.51540  Biso   1.000  H
  N20      1.0000 0.17053  0.37206  0.52270  Biso   1.000  N
  H104     1.0000 0.16170  0.40330  0.53630  Biso   1.000  H
  C46      1.0000 0.33201  0.54230  0.50346  Biso   1.000  C
  H105     1.0000 0.36620  0.54960  0.47590  Biso   1.000  H
  H106     1.0000 0.33850  0.54830  0.55820  Biso   1.000  H
  C47      1.0000 0.28804  0.58009  0.47563  Biso   1.000  C
  H107     1.0000 0.29250  0.61650  0.49840  Biso   1.000  H
  H108     1.0000 0.28970  0.58360  0.41970  Biso   1.000  H
  C48      1.0000 0.19330  0.58957  0.48614  Biso   1.000  C
  C49      1.0000 0.09342  0.59856  0.48955  Biso   1.000  C
  H109     1.0000 0.09850  0.62670  0.44940  Biso   1.000  H
  C50      1.0000 0.07948  0.62724  0.56298  Biso   1.000  C
  H110     1.0000 0.10940  0.65130  0.57740  Biso   1.000  H
  H111     1.0000 0.07360  0.60030  0.60300  Biso   1.000  H
  H112     1.0000 0.04640  0.64870  0.55600  Biso   1.000  H
  C51      1.0000 0.04872  0.56079  0.46399  Biso   1.000  C
  H113     1.0000 0.05930  0.54320  0.41640  Biso   1.000  H
  H114     1.0000 0.01530  0.58160  0.45610  Biso   1.000  H
  H115     1.0000 0.04250  0.53310  0.50300  Biso   1.000  H
  C52      1.0000 0.34407  0.44733  0.54036  Biso   1.000  C
  H116     1.0000 0.34530  0.46160  0.59280  Biso   1.000  H
  H117     1.0000 0.38180  0.44260  0.52220  Biso   1.000  H
  C53      1.0000 0.31464  0.39345  0.53904  Biso   1.000  C
  H118     1.0000 0.32480  0.37250  0.49330  Biso   1.000  H
  H119     1.0000 0.32400  0.37180  0.58450  Biso   1.000  H
  C54      1.0000 0.22422  0.36241  0.53502  Biso   1.000  C
  C55      1.0000 0.12905  0.33132  0.53261  Biso   1.000  C
  H120     1.0000 0.14490  0.29420  0.52750  Biso   1.000  H
  C56      1.0000 0.09580  0.33470  0.60010  Biso   1.000  C
  H121     1.0000 0.11810  0.32710  0.64490  Biso   1.000  H
  H122     1.0000 0.06640  0.30800  0.59690  Biso   1.000  H
  H123     1.0000 0.08030  0.37120  0.60420  Biso   1.000  H
  C57      1.0000 0.08710  0.34440  0.45990  Biso   1.000  C
  H124     1.0000 0.10740  0.34290  0.41220  Biso   1.000  H
  H125     1.0000 0.07140  0.38060  0.46610  Biso   1.000  H
  H126     1.0000 0.05810  0.31730  0.45890  Biso   1.000  H
  C58      1.0000 0.32107  0.47038  0.40933  Biso   1.000  C
  H127     1.0000 0.30940  0.43280  0.40210  Biso   1.000  H
  H128     1.0000 0.35920  0.47390  0.39460  Biso   1.000  H
  H129     1.0000 0.29880  0.49440  0.37780  Biso   1.000  H
  C59      1.0000 0.12940  0.31570  0.62430  Biso   1.000  C
  C60      1.0000 0.07890  0.34740  0.50810  Biso   1.000  C
  H130     1.0000 0.13960  0.29980  0.50420  Biso   1.000  H
  H131     1.0000 0.16610  0.30470  0.63940  Biso   1.000  H
  H132     1.0000 0.10410  0.28570  0.63350  Biso   1.000  H
  H133     1.0000 0.11830  0.34730  0.65400  Biso   1.000  H
  H134     1.0000 0.08050  0.35610  0.45400  Biso   1.000  H
  H135     1.0000 0.06740  0.37950  0.53660  Biso   1.000  H
  H136     1.0000 0.05280  0.31800  0.51630  Biso   1.000  H
  Ni5      1.0000 0.01862  0.74085  0.97471  Biso   1.000  Ni
  O9       1.0000 0.86192  0.69796  0.03500  Biso   1.000  O
  O10      1.0000 0.18571  0.74141  0.96140  Biso   1.000  O
  N21      1.0000 0.01434  0.81469  0.00957  Biso   1.000  N
  N22      1.0000 0.94360  0.73603  0.00133  Biso   1.000  N
  N23      1.0000 0.09399  0.75658  0.96170  Biso   1.000  N
  N24      1.0000 0.93279  0.64315  0.00521  Biso   1.000  N
  H137     1.0000 0.96030  0.64340  0.98460  Biso   1.000  H
  N25      1.0000 0.12794  0.67053  0.97730  Biso   1.000  N
  H138     1.0000 0.09670  0.66170  0.96370  Biso   1.000  H
  C61      1.0000 0.95770  0.83201  0.99654  Biso   1.000  C
  H139     1.0000 0.95040  0.86620  0.02410  Biso   1.000  H
  H140     1.0000 0.95170  0.83850  0.94180  Biso   1.000  H
  C62      1.0000 0.91991  0.78804  0.02437  Biso   1.000  C
  H141     1.0000 0.88350  0.79250  0.00160  Biso   1.000  H
  H142     1.0000 0.91640  0.78970  0.08030  Biso   1.000  H
  C63      1.0000 0.91043  0.69330  0.01386  Biso   1.000  C
  C64      1.0000 0.90144  0.59342  0.01045  Biso   1.000  C
  H143     1.0000 0.87330  0.59850  0.05060  Biso   1.000  H
  C65      1.0000 0.87276  0.57948  0.93702  Biso   1.000  C
  H144     1.0000 0.84870  0.60940  0.92260  Biso   1.000  H
  H145     1.0000 0.89970  0.57360  0.89700  Biso   1.000  H
  H146     1.0000 0.85130  0.54640  0.94400  Biso   1.000  H
  C66      1.0000 0.93921  0.54872  0.03601  Biso   1.000  C
  H147     1.0000 0.95680  0.55930  0.08360  Biso   1.000  H
  H148     1.0000 0.91840  0.51530  0.04390  Biso   1.000  H
  H149     1.0000 0.96690  0.54250  0.99700  Biso   1.000  H
  C67      1.0000 0.05267  0.84407  0.95964  Biso   1.000  C
  H150     1.0000 0.03840  0.84530  0.90720  Biso   1.000  H
  H151     1.0000 0.05740  0.88180  0.97780  Biso   1.000  H
  C68      1.0000 0.10655  0.81464  0.96096  Biso   1.000  C
  H152     1.0000 0.12750  0.82480  0.00670  Biso   1.000  H
  H153     1.0000 0.12820  0.82400  0.91550  Biso   1.000  H
  C69      1.0000 0.13759  0.72422  0.96498  Biso   1.000  C
  C70      1.0000 0.16868  0.62905  0.96739  Biso   1.000  C
  H154     1.0000 0.20580  0.64490  0.97250  Biso   1.000  H
  C71      1.0000 0.16530  0.59580  0.89990  Biso   1.000  C
  H155     1.0000 0.17290  0.61810  0.85510  Biso   1.000  H
  H156     1.0000 0.19200  0.56640  0.90310  Biso   1.000  H
  H157     1.0000 0.12880  0.58030  0.89580  Biso   1.000  H
  C72      1.0000 0.15560  0.58710  0.04010  Biso   1.000  C
  H158     1.0000 0.15710  0.60740  0.08780  Biso   1.000  H
  H159     1.0000 0.11940  0.57140  0.03390  Biso   1.000  H
  H160     1.0000 0.18270  0.55810  0.04110  Biso   1.000  H
  C73      1.0000 0.02962  0.82107  0.09067  Biso   1.000  C
  H161     1.0000 0.06720  0.80940  0.09790  Biso   1.000  H
  H162     1.0000 0.02610  0.85920  0.10540  Biso   1.000  H
  H163     1.0000 0.00560  0.79880  0.12220  Biso   1.000  H
  C74      1.0000 0.18430  0.62940  0.87570  Biso   1.000  C
  C75      1.0000 0.15260  0.57890  0.99190  Biso   1.000  C
  H164     1.0000 0.20020  0.63960  0.99580  Biso   1.000  H
  H165     1.0000 0.19530  0.66610  0.86060  Biso   1.000  H
  H166     1.0000 0.21430  0.60410  0.86650  Biso   1.000  H
  H167     1.0000 0.15270  0.61830  0.84600  Biso   1.000  H
  H168     1.0000 0.14390  0.58050  0.04600  Biso   1.000  H
  H169     1.0000 0.12050  0.56740  0.96340  Biso   1.000  H
  H170     1.0000 0.18200  0.55280  0.98370  Biso   1.000  H
  Ni6      1.0000 0.51862  0.24085  0.47471  Biso   1.000  Ni
  O11      1.0000 0.36192  0.19796  0.53500  Biso   1.000  O
  O12      1.0000 0.68571  0.24141  0.46140  Biso   1.000  O
  N26      1.0000 0.51434  0.31469  0.50957  Biso   1.000  N
  N27      1.0000 0.44360  0.23603  0.50133  Biso   1.000  N
  N28      1.0000 0.59399  0.25658  0.46170  Biso   1.000  N
  N29      1.0000 0.43279  0.14315  0.50521  Biso   1.000  N
  H171     1.0000 0.46030  0.14340  0.48460  Biso   1.000  H
  N30      1.0000 0.62794  0.17053  0.47730  Biso   1.000  N
  H172     1.0000 0.59670  0.16170  0.46370  Biso   1.000  H
  C76      1.0000 0.45770  0.33201  0.49654  Biso   1.000  C
  H173     1.0000 0.45040  0.36620  0.52410  Biso   1.000  H
  H174     1.0000 0.45170  0.33850  0.44180  Biso   1.000  H
  C77      1.0000 0.41991  0.28804  0.52437  Biso   1.000  C
  H175     1.0000 0.38350  0.29250  0.50160  Biso   1.000  H
  H176     1.0000 0.41640  0.28970  0.58030  Biso   1.000  H
  C78      1.0000 0.41043  0.19330  0.51386  Biso   1.000  C
  C79      1.0000 0.40144  0.09342  0.51045  Biso   1.000  C
  H177     1.0000 0.37330  0.09850  0.55060  Biso   1.000  H
  C80      1.0000 0.37276  0.07948  0.43702  Biso   1.000  C
  H178     1.0000 0.34870  0.10940  0.42260  Biso   1.000  H
  H179     1.0000 0.39970  0.07360  0.39700  Biso   1.000  H
  H180     1.0000 0.35130  0.04640  0.44400  Biso   1.000  H
  C81      1.0000 0.43921  0.04872  0.53601  Biso   1.000  C
  H181     1.0000 0.45680  0.05930  0.58360  Biso   1.000  H
  H182     1.0000 0.41840  0.01530  0.54390  Biso   1.000  H
  H183     1.0000 0.46690  0.04250  0.49700  Biso   1.000  H
  C82      1.0000 0.55267  0.34407  0.45964  Biso   1.000  C
  H184     1.0000 0.53840  0.34530  0.40720  Biso   1.000  H
  H185     1.0000 0.55740  0.38180  0.47780  Biso   1.000  H
  C83      1.0000 0.60655  0.31464  0.46096  Biso   1.000  C
  H186     1.0000 0.62750  0.32480  0.50670  Biso   1.000  H
  H187     1.0000 0.62820  0.32400  0.41550  Biso   1.000  H
  C84      1.0000 0.63759  0.22422  0.46498  Biso   1.000  C
  C85      1.0000 0.66868  0.12905  0.46739  Biso   1.000  C
  H188     1.0000 0.70580  0.14490  0.47250  Biso   1.000  H
  C86      1.0000 0.66530  0.09580  0.39990  Biso   1.000  C
  H189     1.0000 0.67290  0.11810  0.35510  Biso   1.000  H
  H190     1.0000 0.69200  0.06640  0.40310  Biso   1.000  H
  H191     1.0000 0.62880  0.08030  0.39580  Biso   1.000  H
  C87      1.0000 0.65560  0.08710  0.54010  Biso   1.000  C
  H192     1.0000 0.65710  0.10740  0.58780  Biso   1.000  H
  H193     1.0000 0.61940  0.07140  0.53390  Biso   1.000  H
  H194     1.0000 0.68270  0.05810  0.54110  Biso   1.000  H
  C88      1.0000 0.52962  0.32107  0.59067  Biso   1.000  C
  H195     1.0000 0.56720  0.30940  0.59790  Biso   1.000  H
  H196     1.0000 0.52610  0.35920  0.60540  Biso   1.000  H
  H197     1.0000 0.50560  0.29880  0.62220  Biso   1.000  H
  C89      1.0000 0.68430  0.12940  0.37570  Biso   1.000  C
  C90      1.0000 0.65260  0.07890  0.49190  Biso   1.000  C
  H198     1.0000 0.70020  0.13960  0.49580  Biso   1.000  H
  H199     1.0000 0.69530  0.16610  0.36060  Biso   1.000  H
  H200     1.0000 0.71430  0.10410  0.36650  Biso   1.000  H
  H201     1.0000 0.65270  0.11830  0.34600  Biso   1.000  H
  H202     1.0000 0.64390  0.08050  0.54600  Biso   1.000  H
  H203     1.0000 0.62050  0.06740  0.46340  Biso   1.000  H
  H204     1.0000 0.68200  0.05280  0.48370  Biso   1.000  H
  Ni7      1.0000 0.98138  0.25915  0.97471  Biso   1.000  Ni
  O13      1.0000 0.13808  0.30204  0.03500  Biso   1.000  O
  O14      1.0000 0.81429  0.25859  0.96140  Biso   1.000  O
  N31      1.0000 0.98566  0.18531  0.00957  Biso   1.000  N
  N32      1.0000 0.05640  0.26397  0.00133  Biso   1.000  N
  N33      1.0000 0.90601  0.24342  0.96170  Biso   1.000  N
  N34      1.0000 0.06721  0.35685  0.00521  Biso   1.000  N
  H205     1.0000 0.03970  0.35660  0.98460  Biso   1.000  H
  N35      1.0000 0.87206  0.32947  0.97730  Biso   1.000  N
  H206     1.0000 0.90330  0.33830  0.96370  Biso   1.000  H
  C91      1.0000 0.04230  0.16799  0.99654  Biso   1.000  C
  H207     1.0000 0.04960  0.13380  0.02410  Biso   1.000  H
  H208     1.0000 0.04830  0.16150  0.94180  Biso   1.000  H
  C92      1.0000 0.08009  0.21196  0.02437  Biso   1.000  C
  H209     1.0000 0.11650  0.20750  0.00160  Biso   1.000  H
  H210     1.0000 0.08360  0.21030  0.08030  Biso   1.000  H
  C93      1.0000 0.08957  0.30670  0.01386  Biso   1.000  C
  C94      1.0000 0.09856  0.40658  0.01045  Biso   1.000  C
  H211     1.0000 0.12670  0.40150  0.05060  Biso   1.000  H
  C95      1.0000 0.12724  0.42052  0.93702  Biso   1.000  C
  H212     1.0000 0.15130  0.39060  0.92260  Biso   1.000  H
  H213     1.0000 0.10030  0.42640  0.89700  Biso   1.000  H
  H214     1.0000 0.14870  0.45360  0.94400  Biso   1.000  H
  C96      1.0000 0.06079  0.45128  0.03601  Biso   1.000  C
  H215     1.0000 0.04320  0.44070  0.08360  Biso   1.000  H
  H216     1.0000 0.08160  0.48470  0.04390  Biso   1.000  H
  H217     1.0000 0.03310  0.45750  0.99700  Biso   1.000  H
  C97      1.0000 0.94733  0.15593  0.95964  Biso   1.000  C
  H218     1.0000 0.96160  0.15470  0.90720  Biso   1.000  H
  H219     1.0000 0.94260  0.11820  0.97780  Biso   1.000  H
  C98      1.0000 0.89345  0.18536  0.96096  Biso   1.000  C
  H220     1.0000 0.87250  0.17520  0.00670  Biso   1.000  H
  H221     1.0000 0.87180  0.17600  0.91550  Biso   1.000  H
  C99      1.0000 0.86241  0.27578  0.96498  Biso   1.000  C
  C100     1.0000 0.83132  0.37095  0.96739  Biso   1.000  C
  H222     1.0000 0.79420  0.35510  0.97250  Biso   1.000  H
  C101     1.0000 0.83470  0.40420  0.89990  Biso   1.000  C
  H223     1.0000 0.82710  0.38190  0.85510  Biso   1.000  H
  H224     1.0000 0.80800  0.43360  0.90310  Biso   1.000  H
  H225     1.0000 0.87120  0.41970  0.89580  Biso   1.000  H
  C102     1.0000 0.84440  0.41290  0.04010  Biso   1.000  C
  H226     1.0000 0.84290  0.39260  0.08780  Biso   1.000  H
  H227     1.0000 0.88060  0.42860  0.03390  Biso   1.000  H
  H228     1.0000 0.81730  0.44190  0.04110  Biso   1.000  H
  C103     1.0000 0.97038  0.17893  0.09067  Biso   1.000  C
  H229     1.0000 0.93280  0.19060  0.09790  Biso   1.000  H
  H230     1.0000 0.97390  0.14080  0.10540  Biso   1.000  H
  H231     1.0000 0.99440  0.20120  0.12220  Biso   1.000  H
  C104     1.0000 0.81570  0.37060  0.87570  Biso   1.000  C
  C105     1.0000 0.84740  0.42110  0.99190  Biso   1.000  C
  H232     1.0000 0.79980  0.36040  0.99580  Biso   1.000  H
  H233     1.0000 0.80470  0.33390  0.86060  Biso   1.000  H
  H234     1.0000 0.78570  0.39590  0.86650  Biso   1.000  H
  H235     1.0000 0.84730  0.38170  0.84600  Biso   1.000  H
  H236     1.0000 0.85610  0.41950  0.04600  Biso   1.000  H
  H237     1.0000 0.87950  0.43260  0.96340  Biso   1.000  H
  H238     1.0000 0.81800  0.44720  0.98370  Biso   1.000  H
  Ni8      1.0000 0.48138  0.75915  0.47471  Biso   1.000  Ni
  O15      1.0000 0.63808  0.80204  0.53500  Biso   1.000  O
  O16      1.0000 0.31429  0.75859  0.46140  Biso   1.000  O
  N36      1.0000 0.48566  0.68531  0.50957  Biso   1.000  N
  N37      1.0000 0.55640  0.76397  0.50133  Biso   1.000  N
  N38      1.0000 0.40601  0.74342  0.46170  Biso   1.000  N
  N39      1.0000 0.56721  0.85685  0.50521  Biso   1.000  N
  H239     1.0000 0.53970  0.85660  0.48460  Biso   1.000  H
  N40      1.0000 0.37206  0.82947  0.47730  Biso   1.000  N
  H240     1.0000 0.40330  0.83830  0.46370  Biso   1.000  H
  C106     1.0000 0.54230  0.66799  0.49654  Biso   1.000  C
  H241     1.0000 0.54960  0.63380  0.52410  Biso   1.000  H
  H242     1.0000 0.54830  0.66150  0.44180  Biso   1.000  H
  C107     1.0000 0.58009  0.71196  0.52437  Biso   1.000  C
  H243     1.0000 0.61650  0.70750  0.50160  Biso   1.000  H
  H244     1.0000 0.58360  0.71030  0.58030  Biso   1.000  H
  C108     1.0000 0.58957  0.80670  0.51386  Biso   1.000  C
  C109     1.0000 0.59856  0.90658  0.51045  Biso   1.000  C
  H245     1.0000 0.62670  0.90150  0.55060  Biso   1.000  H
  C110     1.0000 0.62724  0.92052  0.43702  Biso   1.000  C
  H246     1.0000 0.65130  0.89060  0.42260  Biso   1.000  H
  H247     1.0000 0.60030  0.92640  0.39700  Biso   1.000  H
  H248     1.0000 0.64870  0.95360  0.44400  Biso   1.000  H
  C111     1.0000 0.56079  0.95128  0.53601  Biso   1.000  C
  H249     1.0000 0.54320  0.94070  0.58360  Biso   1.000  H
  H250     1.0000 0.58160  0.98470  0.54390  Biso   1.000  H
  H251     1.0000 0.53310  0.95750  0.49700  Biso   1.000  H
  C112     1.0000 0.44733  0.65593  0.45964  Biso   1.000  C
  H252     1.0000 0.46160  0.65470  0.40720  Biso   1.000  H
  H253     1.0000 0.44260  0.61820  0.47780  Biso   1.000  H
  C113     1.0000 0.39345  0.68536  0.46096  Biso   1.000  C
  H254     1.0000 0.37250  0.67520  0.50670  Biso   1.000  H
  H255     1.0000 0.37180  0.67600  0.41550  Biso   1.000  H
  C114     1.0000 0.36241  0.77578  0.46498  Biso   1.000  C
  C115     1.0000 0.33132  0.87095  0.46739  Biso   1.000  C
  H256     1.0000 0.29420  0.85510  0.47250  Biso   1.000  H
  C116     1.0000 0.33470  0.90420  0.39990  Biso   1.000  C
  H257     1.0000 0.32710  0.88190  0.35510  Biso   1.000  H
  H258     1.0000 0.30800  0.93360  0.40310  Biso   1.000  H
  H259     1.0000 0.37120  0.91970  0.39580  Biso   1.000  H
  C117     1.0000 0.34440  0.91290  0.54010  Biso   1.000  C
  H260     1.0000 0.34290  0.89260  0.58780  Biso   1.000  H
  H261     1.0000 0.38060  0.92860  0.53390  Biso   1.000  H
  H262     1.0000 0.31730  0.94190  0.54110  Biso   1.000  H
  C118     1.0000 0.47038  0.67893  0.59067  Biso   1.000  C
  H263     1.0000 0.43280  0.69060  0.59790  Biso   1.000  H
  H264     1.0000 0.47390  0.64080  0.60540  Biso   1.000  H
  H265     1.0000 0.49440  0.70120  0.62220  Biso   1.000  H
  C119     1.0000 0.31570  0.87060  0.37570  Biso   1.000  C
  C120     1.0000 0.34740  0.92110  0.49190  Biso   1.000  C
  H266     1.0000 0.29980  0.86040  0.49580  Biso   1.000  H
  H267     1.0000 0.30470  0.83390  0.36060  Biso   1.000  H
  H268     1.0000 0.28570  0.89590  0.36650  Biso   1.000  H
  H269     1.0000 0.34730  0.88170  0.34600  Biso   1.000  H
  H270     1.0000 0.35610  0.91950  0.54600  Biso   1.000  H
  H271     1.0000 0.37950  0.93260  0.46340  Biso   1.000  H
  H272     1.0000 0.31800  0.94720  0.48370  Biso   1.000  H
  Ni9      1.0000 0.24085  0.01862  0.72471  Biso   1.000  Ni
  O17      1.0000 0.19796  0.86192  0.78500  Biso   1.000  O
  O18      1.0000 0.24141  0.18571  0.71140  Biso   1.000  O
  N41      1.0000 0.31469  0.01434  0.75957  Biso   1.000  N
  N42      1.0000 0.23603  0.94360  0.75133  Biso   1.000  N
  N43      1.0000 0.25658  0.09399  0.71170  Biso   1.000  N
  N44      1.0000 0.14315  0.93279  0.75521  Biso   1.000  N
  H273     1.0000 0.14340  0.96030  0.73460  Biso   1.000  H
  N45      1.0000 0.17053  0.12794  0.72730  Biso   1.000  N
  H274     1.0000 0.16170  0.09670  0.71370  Biso   1.000  H
  C121     1.0000 0.33201  0.95770  0.74654  Biso   1.000  C
  H275     1.0000 0.36620  0.95040  0.77410  Biso   1.000  H
  H276     1.0000 0.33850  0.95170  0.69180  Biso   1.000  H
  C122     1.0000 0.28804  0.91991  0.77437  Biso   1.000  C
  H277     1.0000 0.29250  0.88350  0.75160  Biso   1.000  H
  H278     1.0000 0.28970  0.91640  0.83030  Biso   1.000  H
  C123     1.0000 0.19330  0.91043  0.76386  Biso   1.000  C
  C124     1.0000 0.09342  0.90144  0.76045  Biso   1.000  C
  H279     1.0000 0.09850  0.87330  0.80060  Biso   1.000  H
  C125     1.0000 0.07948  0.87276  0.68702  Biso   1.000  C
  H280     1.0000 0.10940  0.84870  0.67260  Biso   1.000  H
  H281     1.0000 0.07360  0.89970  0.64700  Biso   1.000  H
  H282     1.0000 0.04640  0.85130  0.69400  Biso   1.000  H
  C126     1.0000 0.04872  0.93921  0.78601  Biso   1.000  C
  H283     1.0000 0.05930  0.95680  0.83360  Biso   1.000  H
  H284     1.0000 0.01530  0.91840  0.79390  Biso   1.000  H
  H285     1.0000 0.04250  0.96690  0.74700  Biso   1.000  H
  C127     1.0000 0.34407  0.05267  0.70964  Biso   1.000  C
  H286     1.0000 0.34530  0.03840  0.65720  Biso   1.000  H
  H287     1.0000 0.38180  0.05740  0.72780  Biso   1.000  H
  C128     1.0000 0.31464  0.10655  0.71096  Biso   1.000  C
  H288     1.0000 0.32480  0.12750  0.75670  Biso   1.000  H
  H289     1.0000 0.32400  0.12820  0.66550  Biso   1.000  H
  C129     1.0000 0.22422  0.13759  0.71498  Biso   1.000  C
  C130     1.0000 0.12905  0.16868  0.71739  Biso   1.000  C
  H290     1.0000 0.14490  0.20580  0.72250  Biso   1.000  H
  C131     1.0000 0.09580  0.16530  0.64990  Biso   1.000  C
  H291     1.0000 0.11810  0.17290  0.60510  Biso   1.000  H
  H292     1.0000 0.06640  0.19200  0.65310  Biso   1.000  H
  H293     1.0000 0.08030  0.12880  0.64580  Biso   1.000  H
  C132     1.0000 0.08710  0.15560  0.79010  Biso   1.000  C
  H294     1.0000 0.10740  0.15710  0.83780  Biso   1.000  H
  H295     1.0000 0.07140  0.11940  0.78390  Biso   1.000  H
  H296     1.0000 0.05810  0.18270  0.79110  Biso   1.000  H
  C133     1.0000 0.32107  0.02962  0.84067  Biso   1.000  C
  H297     1.0000 0.30940  0.06720  0.84790  Biso   1.000  H
  H298     1.0000 0.35920  0.02610  0.85540  Biso   1.000  H
  H299     1.0000 0.29880  0.00560  0.87220  Biso   1.000  H
  C134     1.0000 0.12940  0.18430  0.62570  Biso   1.000  C
  C135     1.0000 0.07890  0.15260  0.74190  Biso   1.000  C
  H300     1.0000 0.13960  0.20020  0.74580  Biso   1.000  H
  H301     1.0000 0.16610  0.19530  0.61060  Biso   1.000  H
  H302     1.0000 0.10410  0.21430  0.61650  Biso   1.000  H
  H303     1.0000 0.11830  0.15270  0.59600  Biso   1.000  H
  H304     1.0000 0.08050  0.14390  0.79600  Biso   1.000  H
  H305     1.0000 0.06740  0.12050  0.71340  Biso   1.000  H
  H306     1.0000 0.05280  0.18200  0.73370  Biso   1.000  H
  Ni10     1.0000 0.74085  0.51862  0.22471  Biso   1.000  Ni
  O19      1.0000 0.69796  0.36192  0.28500  Biso   1.000  O
  O20      1.0000 0.74141  0.68571  0.21140  Biso   1.000  O
  N46      1.0000 0.81469  0.51434  0.25957  Biso   1.000  N
  N47      1.0000 0.73603  0.44360  0.25133  Biso   1.000  N
  N48      1.0000 0.75658  0.59399  0.21170  Biso   1.000  N
  N49      1.0000 0.64315  0.43279  0.25521  Biso   1.000  N
  H307     1.0000 0.64340  0.46030  0.23460  Biso   1.000  H
  N50      1.0000 0.67053  0.62794  0.22730  Biso   1.000  N
  H308     1.0000 0.66170  0.59670  0.21370  Biso   1.000  H
  C136     1.0000 0.83201  0.45770  0.24654  Biso   1.000  C
  H309     1.0000 0.86620  0.45040  0.27410  Biso   1.000  H
  H310     1.0000 0.83850  0.45170  0.19180  Biso   1.000  H
  C137     1.0000 0.78804  0.41991  0.27437  Biso   1.000  C
  H311     1.0000 0.79250  0.38350  0.25160  Biso   1.000  H
  H312     1.0000 0.78970  0.41640  0.33030  Biso   1.000  H
  C138     1.0000 0.69330  0.41043  0.26386  Biso   1.000  C
  C139     1.0000 0.59342  0.40144  0.26045  Biso   1.000  C
  H313     1.0000 0.59850  0.37330  0.30060  Biso   1.000  H
  C140     1.0000 0.57948  0.37276  0.18702  Biso   1.000  C
  H314     1.0000 0.60940  0.34870  0.17260  Biso   1.000  H
  H315     1.0000 0.57360  0.39970  0.14700  Biso   1.000  H
  H316     1.0000 0.54640  0.35130  0.19400  Biso   1.000  H
  C141     1.0000 0.54872  0.43921  0.28601  Biso   1.000  C
  H317     1.0000 0.55930  0.45680  0.33360  Biso   1.000  H
  H318     1.0000 0.51530  0.41840  0.29390  Biso   1.000  H
  H319     1.0000 0.54250  0.46690  0.24700  Biso   1.000  H
  C142     1.0000 0.84407  0.55267  0.20964  Biso   1.000  C
  H320     1.0000 0.84530  0.53840  0.15720  Biso   1.000  H
  H321     1.0000 0.88180  0.55740  0.22780  Biso   1.000  H
  C143     1.0000 0.81464  0.60655  0.21096  Biso   1.000  C
  H322     1.0000 0.82480  0.62750  0.25670  Biso   1.000  H
  H323     1.0000 0.82400  0.62820  0.16550  Biso   1.000  H
  C144     1.0000 0.72422  0.63759  0.21498  Biso   1.000  C
  C145     1.0000 0.62905  0.66868  0.21739  Biso   1.000  C
  H324     1.0000 0.64490  0.70580  0.22250  Biso   1.000  H
  C146     1.0000 0.59580  0.66530  0.14990  Biso   1.000  C
  H325     1.0000 0.61810  0.67290  0.10510  Biso   1.000  H
  H326     1.0000 0.56640  0.69200  0.15310  Biso   1.000  H
  H327     1.0000 0.58030  0.62880  0.14580  Biso   1.000  H
  C147     1.0000 0.58710  0.65560  0.29010  Biso   1.000  C
  H328     1.0000 0.60740  0.65710  0.33780  Biso   1.000  H
  H329     1.0000 0.57140  0.61940  0.28390  Biso   1.000  H
  H330     1.0000 0.55810  0.68270  0.29110  Biso   1.000  H
  C148     1.0000 0.82107  0.52962  0.34067  Biso   1.000  C
  H331     1.0000 0.80940  0.56720  0.34790  Biso   1.000  H
  H332     1.0000 0.85920  0.52610  0.35540  Biso   1.000  H
  H333     1.0000 0.79880  0.50560  0.37220  Biso   1.000  H
  C149     1.0000 0.62940  0.68430  0.12570  Biso   1.000  C
  C150     1.0000 0.57890  0.65260  0.24190  Biso   1.000  C
  H334     1.0000 0.63960  0.70020  0.24580  Biso   1.000  H
  H335     1.0000 0.66610  0.69530  0.11060  Biso   1.000  H
  H336     1.0000 0.60410  0.71430  0.11650  Biso   1.000  H
  H337     1.0000 0.61830  0.65270  0.09600  Biso   1.000  H
  H338     1.0000 0.58050  0.64390  0.29600  Biso   1.000  H
  H339     1.0000 0.56740  0.62050  0.21340  Biso   1.000  H
  H340     1.0000 0.55280  0.68200  0.23370  Biso   1.000  H
  Ni11     1.0000 0.75915  0.98138  0.72471  Biso   1.000  Ni
  O21      1.0000 0.80204  0.13808  0.78500  Biso   1.000  O
  O22      1.0000 0.75859  0.81429  0.71140  Biso   1.000  O
  N51      1.0000 0.68531  0.98566  0.75957  Biso   1.000  N
  N52      1.0000 0.76397  0.05640  0.75133  Biso   1.000  N
  N53      1.0000 0.74342  0.90601  0.71170  Biso   1.000  N
  N54      1.0000 0.85685  0.06721  0.75521  Biso   1.000  N
  H341     1.0000 0.85660  0.03970  0.73460  Biso   1.000  H
  N55      1.0000 0.82947  0.87206  0.72730  Biso   1.000  N
  H342     1.0000 0.83830  0.90330  0.71370  Biso   1.000  H
  C151     1.0000 0.66799  0.04230  0.74654  Biso   1.000  C
  H343     1.0000 0.63380  0.04960  0.77410  Biso   1.000  H
  H344     1.0000 0.66150  0.04830  0.69180  Biso   1.000  H
  C152     1.0000 0.71196  0.08009  0.77437  Biso   1.000  C
  H345     1.0000 0.70750  0.11650  0.75160  Biso   1.000  H
  H346     1.0000 0.71030  0.08360  0.83030  Biso   1.000  H
  C153     1.0000 0.80670  0.08957  0.76386  Biso   1.000  C
  C154     1.0000 0.90658  0.09856  0.76045  Biso   1.000  C
  H347     1.0000 0.90150  0.12670  0.80060  Biso   1.000  H
  C155     1.0000 0.92052  0.12724  0.68702  Biso   1.000  C
  H348     1.0000 0.89060  0.15130  0.67260  Biso   1.000  H
  H349     1.0000 0.92640  0.10030  0.64700  Biso   1.000  H
  H350     1.0000 0.95360  0.14870  0.69400  Biso   1.000  H
  C156     1.0000 0.95128  0.06079  0.78601  Biso   1.000  C
  H351     1.0000 0.94070  0.04320  0.83360  Biso   1.000  H
  H352     1.0000 0.98470  0.08160  0.79390  Biso   1.000  H
  H353     1.0000 0.95750  0.03310  0.74700  Biso   1.000  H
  C157     1.0000 0.65593  0.94733  0.70964  Biso   1.000  C
  H354     1.0000 0.65470  0.96160  0.65720  Biso   1.000  H
  H355     1.0000 0.61820  0.94260  0.72780  Biso   1.000  H
  C158     1.0000 0.68536  0.89345  0.71096  Biso   1.000  C
  H356     1.0000 0.67520  0.87250  0.75670  Biso   1.000  H
  H357     1.0000 0.67600  0.87180  0.66550  Biso   1.000  H
  C159     1.0000 0.77578  0.86241  0.71498  Biso   1.000  C
  C160     1.0000 0.87095  0.83132  0.71739  Biso   1.000  C
  H358     1.0000 0.85510  0.79420  0.72250  Biso   1.000  H
  C161     1.0000 0.90420  0.83470  0.64990  Biso   1.000  C
  H359     1.0000 0.88190  0.82710  0.60510  Biso   1.000  H
  H360     1.0000 0.93360  0.80800  0.65310  Biso   1.000  H
  H361     1.0000 0.91970  0.87120  0.64580  Biso   1.000  H
  C162     1.0000 0.91290  0.84440  0.79010  Biso   1.000  C
  H362     1.0000 0.89260  0.84290  0.83780  Biso   1.000  H
  H363     1.0000 0.92860  0.88060  0.78390  Biso   1.000  H
  H364     1.0000 0.94190  0.81730  0.79110  Biso   1.000  H
  C163     1.0000 0.67893  0.97038  0.84067  Biso   1.000  C
  H365     1.0000 0.69060  0.93280  0.84790  Biso   1.000  H
  H366     1.0000 0.64080  0.97390  0.85540  Biso   1.000  H
  H367     1.0000 0.70120  0.99440  0.87220  Biso   1.000  H
  C164     1.0000 0.87060  0.81570  0.62570  Biso   1.000  C
  C165     1.0000 0.92110  0.84740  0.74190  Biso   1.000  C
  H368     1.0000 0.86040  0.79980  0.74580  Biso   1.000  H
  H369     1.0000 0.83390  0.80470  0.61060  Biso   1.000  H
  H370     1.0000 0.89590  0.78570  0.61650  Biso   1.000  H
  H371     1.0000 0.88170  0.84730  0.59600  Biso   1.000  H
  H372     1.0000 0.91950  0.85610  0.79600  Biso   1.000  H
  H373     1.0000 0.93260  0.87950  0.71340  Biso   1.000  H
  H374     1.0000 0.94720  0.81800  0.73370  Biso   1.000  H
  Ni12     1.0000 0.25915  0.48138  0.22471  Biso   1.000  Ni
  O23      1.0000 0.30204  0.63808  0.28500  Biso   1.000  O
  O24      1.0000 0.25859  0.31429  0.21140  Biso   1.000  O
  N56      1.0000 0.18531  0.48566  0.25957  Biso   1.000  N
  N57      1.0000 0.26397  0.55640  0.25133  Biso   1.000  N
  N58      1.0000 0.24342  0.40601  0.21170  Biso   1.000  N
  N59      1.0000 0.35685  0.56721  0.25521  Biso   1.000  N
  H375     1.0000 0.35660  0.53970  0.23460  Biso   1.000  H
  N60      1.0000 0.32947  0.37206  0.22730  Biso   1.000  N
  H376     1.0000 0.33830  0.40330  0.21370  Biso   1.000  H
  C166     1.0000 0.16799  0.54230  0.24654  Biso   1.000  C
  H377     1.0000 0.13380  0.54960  0.27410  Biso   1.000  H
  H378     1.0000 0.16150  0.54830  0.19180  Biso   1.000  H
  C167     1.0000 0.21196  0.58009  0.27437  Biso   1.000  C
  H379     1.0000 0.20750  0.61650  0.25160  Biso   1.000  H
  H380     1.0000 0.21030  0.58360  0.33030  Biso   1.000  H
  C168     1.0000 0.30670  0.58957  0.26386  Biso   1.000  C
  C169     1.0000 0.40658  0.59856  0.26045  Biso   1.000  C
  H381     1.0000 0.40150  0.62670  0.30060  Biso   1.000  H
  C170     1.0000 0.42052  0.62724  0.18702  Biso   1.000  C
  H382     1.0000 0.39060  0.65130  0.17260  Biso   1.000  H
  H383     1.0000 0.42640  0.60030  0.14700  Biso   1.000  H
  H384     1.0000 0.45360  0.64870  0.19400  Biso   1.000  H
  C171     1.0000 0.45128  0.56079  0.28601  Biso   1.000  C
  H385     1.0000 0.44070  0.54320  0.33360  Biso   1.000  H
  H386     1.0000 0.48470  0.58160  0.29390  Biso   1.000  H
  H387     1.0000 0.45750  0.53310  0.24700  Biso   1.000  H
  C172     1.0000 0.15593  0.44733  0.20964  Biso   1.000  C
  H388     1.0000 0.15470  0.46160  0.15720  Biso   1.000  H
  H389     1.0000 0.11820  0.44260  0.22780  Biso   1.000  H
  C173     1.0000 0.18536  0.39345  0.21096  Biso   1.000  C
  H390     1.0000 0.17520  0.37250  0.25670  Biso   1.000  H
  H391     1.0000 0.17600  0.37180  0.16550  Biso   1.000  H
  C174     1.0000 0.27578  0.36241  0.21498  Biso   1.000  C
  C175     1.0000 0.37095  0.33132  0.21739  Biso   1.000  C
  H392     1.0000 0.35510  0.29420  0.22250  Biso   1.000  H
  C176     1.0000 0.40420  0.33470  0.14990  Biso   1.000  C
  H393     1.0000 0.38190  0.32710  0.10510  Biso   1.000  H
  H394     1.0000 0.43360  0.30800  0.15310  Biso   1.000  H
  H395     1.0000 0.41970  0.37120  0.14580  Biso   1.000  H
  C177     1.0000 0.41290  0.34440  0.29010  Biso   1.000  C
  H396     1.0000 0.39260  0.34290  0.33780  Biso   1.000  H
  H397     1.0000 0.42860  0.38060  0.28390  Biso   1.000  H
  H398     1.0000 0.44190  0.31730  0.29110  Biso   1.000  H
  C178     1.0000 0.17893  0.47038  0.34067  Biso   1.000  C
  H399     1.0000 0.19060  0.43280  0.34790  Biso   1.000  H
  H400     1.0000 0.14080  0.47390  0.35540  Biso   1.000  H
  H401     1.0000 0.20120  0.49440  0.37220  Biso   1.000  H
  C179     1.0000 0.37060  0.31570  0.12570  Biso   1.000  C
  C180     1.0000 0.42110  0.34740  0.24190  Biso   1.000  C
  H402     1.0000 0.36040  0.29980  0.24580  Biso   1.000  H
  H403     1.0000 0.33390  0.30470  0.11060  Biso   1.000  H
  H404     1.0000 0.39590  0.28570  0.11650  Biso   1.000  H
  H405     1.0000 0.38170  0.34730  0.09600  Biso   1.000  H
  H406     1.0000 0.41950  0.35610  0.29600  Biso   1.000  H
  H407     1.0000 0.43260  0.37950  0.21340  Biso   1.000  H
  H408     1.0000 0.44720  0.31800  0.23370  Biso   1.000  H
  Ni13     1.0000 0.48138  0.74085  0.77529  Biso   1.000  Ni
  O25      1.0000 0.63808  0.69796  0.71500  Biso   1.000  O
  O26      1.0000 0.31429  0.74141  0.78860  Biso   1.000  O
  N61      1.0000 0.48566  0.81469  0.74043  Biso   1.000  N
  N62      1.0000 0.55640  0.73603  0.74867  Biso   1.000  N
  N63      1.0000 0.40601  0.75658  0.78830  Biso   1.000  N
  N64      1.0000 0.56721  0.64315  0.74479  Biso   1.000  N
  H409     1.0000 0.53970  0.64340  0.76540  Biso   1.000  H
  N65      1.0000 0.37206  0.67053  0.77270  Biso   1.000  N
  H410     1.0000 0.40330  0.66170  0.78630  Biso   1.000  H
  C181     1.0000 0.54230  0.83201  0.75346  Biso   1.000  C
  H411     1.0000 0.54960  0.86620  0.72590  Biso   1.000  H
  H412     1.0000 0.54830  0.83850  0.80820  Biso   1.000  H
  C182     1.0000 0.58009  0.78804  0.72563  Biso   1.000  C
  H413     1.0000 0.61650  0.79250  0.74840  Biso   1.000  H
  H414     1.0000 0.58360  0.78970  0.66970  Biso   1.000  H
  C183     1.0000 0.58957  0.69330  0.73614  Biso   1.000  C
  C184     1.0000 0.59856  0.59342  0.73955  Biso   1.000  C
  H415     1.0000 0.62670  0.59850  0.69940  Biso   1.000  H
  C185     1.0000 0.62724  0.57948  0.81298  Biso   1.000  C
  H416     1.0000 0.65130  0.60940  0.82740  Biso   1.000  H
  H417     1.0000 0.60030  0.57360  0.85300  Biso   1.000  H
  H418     1.0000 0.64870  0.54640  0.80600  Biso   1.000  H
  C186     1.0000 0.56079  0.54872  0.71399  Biso   1.000  C
  H419     1.0000 0.54320  0.55930  0.66640  Biso   1.000  H
  H420     1.0000 0.58160  0.51530  0.70610  Biso   1.000  H
  H421     1.0000 0.53310  0.54250  0.75300  Biso   1.000  H
  C187     1.0000 0.44733  0.84407  0.79036  Biso   1.000  C
  H422     1.0000 0.46160  0.84530  0.84280  Biso   1.000  H
  H423     1.0000 0.44260  0.88180  0.77220  Biso   1.000  H
  C188     1.0000 0.39345  0.81464  0.78904  Biso   1.000  C
  H424     1.0000 0.37250  0.82480  0.74330  Biso   1.000  H
  H425     1.0000 0.37180  0.82400  0.83450  Biso   1.000  H
  C189     1.0000 0.36241  0.72422  0.78502  Biso   1.000  C
  C190     1.0000 0.33132  0.62905  0.78261  Biso   1.000  C
  H426     1.0000 0.29420  0.64490  0.77750  Biso   1.000  H
  C191     1.0000 0.33470  0.59580  0.85010  Biso   1.000  C
  H427     1.0000 0.32710  0.61810  0.89490  Biso   1.000  H
  H428     1.0000 0.30800  0.56640  0.84690  Biso   1.000  H
  H429     1.0000 0.37120  0.58030  0.85420  Biso   1.000  H
  C192     1.0000 0.34440  0.58710  0.70990  Biso   1.000  C
  H430     1.0000 0.34290  0.60740  0.66220  Biso   1.000  H
  H431     1.0000 0.38060  0.57140  0.71610  Biso   1.000  H
  H432     1.0000 0.31730  0.55810  0.70890  Biso   1.000  H
  C193     1.0000 0.47038  0.82107  0.65933  Biso   1.000  C
  H433     1.0000 0.43280  0.80940  0.65210  Biso   1.000  H
  H434     1.0000 0.47390  0.85920  0.64460  Biso   1.000  H
  H435     1.0000 0.49440  0.79880  0.62780  Biso   1.000  H
  C194     1.0000 0.31570  0.62940  0.87430  Biso   1.000  C
  C195     1.0000 0.34740  0.57890  0.75810  Biso   1.000  C
  H436     1.0000 0.29980  0.63960  0.75420  Biso   1.000  H
  H437     1.0000 0.30470  0.66610  0.88940  Biso   1.000  H
  H438     1.0000 0.28570  0.60410  0.88350  Biso   1.000  H
  H439     1.0000 0.34730  0.61830  0.90400  Biso   1.000  H
  H440     1.0000 0.35610  0.58050  0.70400  Biso   1.000  H
  H441     1.0000 0.37950  0.56740  0.78660  Biso   1.000  H
  H442     1.0000 0.31800  0.55280  0.76630  Biso   1.000  H
  Ni14     1.0000 0.98138  0.24085  0.27529  Biso   1.000  Ni
  O27      1.0000 0.13808  0.19796  0.21500  Biso   1.000  O
  O28      1.0000 0.81429  0.24141  0.28860  Biso   1.000  O
  N66      1.0000 0.98566  0.31469  0.24043  Biso   1.000  N
  N67      1.0000 0.05640  0.23603  0.24867  Biso   1.000  N
  N68      1.0000 0.90601  0.25658  0.28830  Biso   1.000  N
  N69      1.0000 0.06721  0.14315  0.24479  Biso   1.000  N
  H443     1.0000 0.03970  0.14340  0.26540  Biso   1.000  H
  N70      1.0000 0.87206  0.17053  0.27270  Biso   1.000  N
  H444     1.0000 0.90330  0.16170  0.28630  Biso   1.000  H
  C196     1.0000 0.04230  0.33201  0.25346  Biso   1.000  C
  H445     1.0000 0.04960  0.36620  0.22590  Biso   1.000  H
  H446     1.0000 0.04830  0.33850  0.30820  Biso   1.000  H
  C197     1.0000 0.08009  0.28804  0.22563  Biso   1.000  C
  H447     1.0000 0.11650  0.29250  0.24840  Biso   1.000  H
  H448     1.0000 0.08360  0.28970  0.16970  Biso   1.000  H
  C198     1.0000 0.08957  0.19330  0.23614  Biso   1.000  C
  C199     1.0000 0.09856  0.09342  0.23955  Biso   1.000  C
  H449     1.0000 0.12670  0.09850  0.19940  Biso   1.000  H
  C200     1.0000 0.12724  0.07948  0.31298  Biso   1.000  C
  H450     1.0000 0.15130  0.10940  0.32740  Biso   1.000  H
  H451     1.0000 0.10030  0.07360  0.35300  Biso   1.000  H
  H452     1.0000 0.14870  0.04640  0.30600  Biso   1.000  H
  C201     1.0000 0.06079  0.04872  0.21399  Biso   1.000  C
  H453     1.0000 0.04320  0.05930  0.16640  Biso   1.000  H
  H454     1.0000 0.08160  0.01530  0.20610  Biso   1.000  H
  H455     1.0000 0.03310  0.04250  0.25300  Biso   1.000  H
  C202     1.0000 0.94733  0.34407  0.29036  Biso   1.000  C
  H456     1.0000 0.96160  0.34530  0.34280  Biso   1.000  H
  H457     1.0000 0.94260  0.38180  0.27220  Biso   1.000  H
  C203     1.0000 0.89345  0.31464  0.28904  Biso   1.000  C
  H458     1.0000 0.87250  0.32480  0.24330  Biso   1.000  H
  H459     1.0000 0.87180  0.32400  0.33450  Biso   1.000  H
  C204     1.0000 0.86241  0.22422  0.28502  Biso   1.000  C
  C205     1.0000 0.83132  0.12905  0.28261  Biso   1.000  C
  H460     1.0000 0.79420  0.14490  0.27750  Biso   1.000  H
  C206     1.0000 0.83470  0.09580  0.35010  Biso   1.000  C
  H461     1.0000 0.82710  0.11810  0.39490  Biso   1.000  H
  H462     1.0000 0.80800  0.06640  0.34690  Biso   1.000  H
  H463     1.0000 0.87120  0.08030  0.35420  Biso   1.000  H
  C207     1.0000 0.84440  0.08710  0.20990  Biso   1.000  C
  H464     1.0000 0.84290  0.10740  0.16220  Biso   1.000  H
  H465     1.0000 0.88060  0.07140  0.21610  Biso   1.000  H
  H466     1.0000 0.81730  0.05810  0.20890  Biso   1.000  H
  C208     1.0000 0.97038  0.32107  0.15933  Biso   1.000  C
  H467     1.0000 0.93280  0.30940  0.15210  Biso   1.000  H
  H468     1.0000 0.97390  0.35920  0.14460  Biso   1.000  H
  H469     1.0000 0.99440  0.29880  0.12780  Biso   1.000  H
  C209     1.0000 0.81570  0.12940  0.37430  Biso   1.000  C
  C210     1.0000 0.84740  0.07890  0.25810  Biso   1.000  C
  H470     1.0000 0.79980  0.13960  0.25420  Biso   1.000  H
  H471     1.0000 0.80470  0.16610  0.38940  Biso   1.000  H
  H472     1.0000 0.78570  0.10410  0.38350  Biso   1.000  H
  H473     1.0000 0.84730  0.11830  0.40400  Biso   1.000  H
  H474     1.0000 0.85610  0.08050  0.20400  Biso   1.000  H
  H475     1.0000 0.87950  0.06740  0.28660  Biso   1.000  H
  H476     1.0000 0.81800  0.05280  0.26630  Biso   1.000  H
  Ni15     1.0000 0.51862  0.25915  0.77529  Biso   1.000  Ni
  O29      1.0000 0.36192  0.30204  0.71500  Biso   1.000  O
  O30      1.0000 0.68571  0.25859  0.78860  Biso   1.000  O
  N71      1.0000 0.51434  0.18531  0.74043  Biso   1.000  N
  N72      1.0000 0.44360  0.26397  0.74867  Biso   1.000  N
  N73      1.0000 0.59399  0.24342  0.78830  Biso   1.000  N
  N74      1.0000 0.43279  0.35685  0.74479  Biso   1.000  N
  H477     1.0000 0.46030  0.35660  0.76540  Biso   1.000  H
  N75      1.0000 0.62794  0.32947  0.77270  Biso   1.000  N
  H478     1.0000 0.59670  0.33830  0.78630  Biso   1.000  H
  C211     1.0000 0.45770  0.16799  0.75346  Biso   1.000  C
  H479     1.0000 0.45040  0.13380  0.72590  Biso   1.000  H
  H480     1.0000 0.45170  0.16150  0.80820  Biso   1.000  H
  C212     1.0000 0.41991  0.21196  0.72563  Biso   1.000  C
  H481     1.0000 0.38350  0.20750  0.74840  Biso   1.000  H
  H482     1.0000 0.41640  0.21030  0.66970  Biso   1.000  H
  C213     1.0000 0.41043  0.30670  0.73614  Biso   1.000  C
  C214     1.0000 0.40144  0.40658  0.73955  Biso   1.000  C
  H483     1.0000 0.37330  0.40150  0.69940  Biso   1.000  H
  C215     1.0000 0.37276  0.42052  0.81298  Biso   1.000  C
  H484     1.0000 0.34870  0.39060  0.82740  Biso   1.000  H
  H485     1.0000 0.39970  0.42640  0.85300  Biso   1.000  H
  H486     1.0000 0.35130  0.45360  0.80600  Biso   1.000  H
  C216     1.0000 0.43921  0.45128  0.71399  Biso   1.000  C
  H487     1.0000 0.45680  0.44070  0.66640  Biso   1.000  H
  H488     1.0000 0.41840  0.48470  0.70610  Biso   1.000  H
  H489     1.0000 0.46690  0.45750  0.75300  Biso   1.000  H
  C217     1.0000 0.55267  0.15593  0.79036  Biso   1.000  C
  H490     1.0000 0.53840  0.15470  0.84280  Biso   1.000  H
  H491     1.0000 0.55740  0.11820  0.77220  Biso   1.000  H
  C218     1.0000 0.60655  0.18536  0.78904  Biso   1.000  C
  H492     1.0000 0.62750  0.17520  0.74330  Biso   1.000  H
  H493     1.0000 0.62820  0.17600  0.83450  Biso   1.000  H
  C219     1.0000 0.63759  0.27578  0.78502  Biso   1.000  C
  C220     1.0000 0.66868  0.37095  0.78261  Biso   1.000  C
  H494     1.0000 0.70580  0.35510  0.77750  Biso   1.000  H
  C221     1.0000 0.66530  0.40420  0.85010  Biso   1.000  C
  H495     1.0000 0.67290  0.38190  0.89490  Biso   1.000  H
  H496     1.0000 0.69200  0.43360  0.84690  Biso   1.000  H
  H497     1.0000 0.62880  0.41970  0.85420  Biso   1.000  H
  C222     1.0000 0.65560  0.41290  0.70990  Biso   1.000  C
  H498     1.0000 0.65710  0.39260  0.66220  Biso   1.000  H
  H499     1.0000 0.61940  0.42860  0.71610  Biso   1.000  H
  H500     1.0000 0.68270  0.44190  0.70890  Biso   1.000  H
  C223     1.0000 0.52962  0.17893  0.65933  Biso   1.000  C
  H501     1.0000 0.56720  0.19060  0.65210  Biso   1.000  H
  H502     1.0000 0.52610  0.14080  0.64460  Biso   1.000  H
  H503     1.0000 0.50560  0.20120  0.62780  Biso   1.000  H
  C224     1.0000 0.68430  0.37060  0.87430  Biso   1.000  C
  C225     1.0000 0.65260  0.42110  0.75810  Biso   1.000  C
  H504     1.0000 0.70020  0.36040  0.75420  Biso   1.000  H
  H505     1.0000 0.69530  0.33390  0.88940  Biso   1.000  H
  H506     1.0000 0.71430  0.39590  0.88350  Biso   1.000  H
  H507     1.0000 0.65270  0.38170  0.90400  Biso   1.000  H
  H508     1.0000 0.64390  0.41950  0.70400  Biso   1.000  H
  H509     1.0000 0.62050  0.43260  0.78660  Biso   1.000  H
  H510     1.0000 0.68200  0.44720  0.76630  Biso   1.000  H
  Ni16     1.0000 0.01862  0.75915  0.27529  Biso   1.000  Ni
  O31      1.0000 0.86192  0.80204  0.21500  Biso   1.000  O
  O32      1.0000 0.18571  0.75859  0.28860  Biso   1.000  O
  N76      1.0000 0.01434  0.68531  0.24043  Biso   1.000  N
  N77      1.0000 0.94360  0.76397  0.24867  Biso   1.000  N
  N78      1.0000 0.09399  0.74342  0.28830  Biso   1.000  N
  N79      1.0000 0.93279  0.85685  0.24479  Biso   1.000  N
  H511     1.0000 0.96030  0.85660  0.26540  Biso   1.000  H
  N80      1.0000 0.12794  0.82947  0.27270  Biso   1.000  N
  H512     1.0000 0.09670  0.83830  0.28630  Biso   1.000  H
  C226     1.0000 0.95770  0.66799  0.25346  Biso   1.000  C
  H513     1.0000 0.95040  0.63380  0.22590  Biso   1.000  H
  H514     1.0000 0.95170  0.66150  0.30820  Biso   1.000  H
  C227     1.0000 0.91991  0.71196  0.22563  Biso   1.000  C
  H515     1.0000 0.88350  0.70750  0.24840  Biso   1.000  H
  H516     1.0000 0.91640  0.71030  0.16970  Biso   1.000  H
  C228     1.0000 0.91043  0.80670  0.23614  Biso   1.000  C
  C229     1.0000 0.90144  0.90658  0.23955  Biso   1.000  C
  H517     1.0000 0.87330  0.90150  0.19940  Biso   1.000  H
  C230     1.0000 0.87276  0.92052  0.31298  Biso   1.000  C
  H518     1.0000 0.84870  0.89060  0.32740  Biso   1.000  H
  H519     1.0000 0.89970  0.92640  0.35300  Biso   1.000  H
  H520     1.0000 0.85130  0.95360  0.30600  Biso   1.000  H
  C231     1.0000 0.93921  0.95128  0.21399  Biso   1.000  C
  H521     1.0000 0.95680  0.94070  0.16640  Biso   1.000  H
  H522     1.0000 0.91840  0.98470  0.20610  Biso   1.000  H
  H523     1.0000 0.96690  0.95750  0.25300  Biso   1.000  H
  C232     1.0000 0.05267  0.65593  0.29036  Biso   1.000  C
  H524     1.0000 0.03840  0.65470  0.34280  Biso   1.000  H
  H525     1.0000 0.05740  0.61820  0.27220  Biso   1.000  H
  C233     1.0000 0.10655  0.68536  0.28904  Biso   1.000  C
  H526     1.0000 0.12750  0.67520  0.24330  Biso   1.000  H
  H527     1.0000 0.12820  0.67600  0.33450  Biso   1.000  H
  C234     1.0000 0.13759  0.77578  0.28502  Biso   1.000  C
  C235     1.0000 0.16868  0.87095  0.28261  Biso   1.000  C
  H528     1.0000 0.20580  0.85510  0.27750  Biso   1.000  H
  C236     1.0000 0.16530  0.90420  0.35010  Biso   1.000  C
  H529     1.0000 0.17290  0.88190  0.39490  Biso   1.000  H
  H530     1.0000 0.19200  0.93360  0.34690  Biso   1.000  H
  H531     1.0000 0.12880  0.91970  0.35420  Biso   1.000  H
  C237     1.0000 0.15560  0.91290  0.20990  Biso   1.000  C
  H532     1.0000 0.15710  0.89260  0.16220  Biso   1.000  H
  H533     1.0000 0.11940  0.92860  0.21610  Biso   1.000  H
  H534     1.0000 0.18270  0.94190  0.20890  Biso   1.000  H
  C238     1.0000 0.02962  0.67893  0.15933  Biso   1.000  C
  H535     1.0000 0.06720  0.69060  0.15210  Biso   1.000  H
  H536     1.0000 0.02610  0.64080  0.14460  Biso   1.000  H
  H537     1.0000 0.00560  0.70120  0.12780  Biso   1.000  H
  C239     1.0000 0.18430  0.87060  0.37430  Biso   1.000  C
  C240     1.0000 0.15260  0.92110  0.25810  Biso   1.000  C
  H538     1.0000 0.20020  0.86040  0.25420  Biso   1.000  H
  H539     1.0000 0.19530  0.83390  0.38940  Biso   1.000  H
  H540     1.0000 0.21430  0.89590  0.38350  Biso   1.000  H
  H541     1.0000 0.15270  0.88170  0.40400  Biso   1.000  H
  H542     1.0000 0.14390  0.91950  0.20400  Biso   1.000  H
  H543     1.0000 0.12050  0.93260  0.28660  Biso   1.000  H
  H544     1.0000 0.18200  0.94720  0.26630  Biso   1.000  H
  K1       1.0000 0.25000  0.79833  0.87500  Biso   1.000  K
  K2       1.0000 0.75000  0.29833  0.37500  Biso   1.000  K
  K3       1.0000 0.75000  0.20167  0.87500  Biso   1.000  K
  K4       1.0000 0.25000  0.70167  0.37500  Biso   1.000  K
  K5       1.0000 0.79833  0.75000  0.12500  Biso   1.000  K
  K6       1.0000 0.29833  0.25000  0.62500  Biso   1.000  K
  K7       1.0000 0.20167  0.25000  0.12500  Biso   1.000  K
  K8       1.0000 0.70167  0.75000  0.62500  Biso   1.000  K
