data_image0
_cell_length_a       35.1544
_cell_length_b       35.1544
_cell_length_c       35.1544
_cell_angle_alpha    90
_cell_angle_beta     90
_cell_angle_gamma    90

_symmetry_space_group_name_H-M    "P 1"
_symmetry_int_tables_number       1

loop_
  _symmetry_equiv_pos_as_xyz
  'x, y, z'

loop_
  _atom_site_label
  _atom_site_occupancy
  _atom_site_fract_x
  _atom_site_fract_y
  _atom_site_fract_z
  _atom_site_thermal_displace_type
  _atom_site_B_iso_or_equiv
  _atom_site_type_symbol
  Zn1      1.0000 0.08384  0.25700  0.05076  Biso   1.000  Zn
  Zn2      1.0000 0.08515  0.44964  0.16150  Biso   1.000  Zn
  O1       1.0000 0.17349  0.45310  0.13403  Biso   1.000  O
  O2       1.0000 0.12083  0.41720  0.13391  Biso   1.000  O
  O3       1.0000 0.16713  0.27375  0.03971  Biso   1.000  O
  O4       1.0000 0.11432  0.30176  0.05977  Biso   1.000  O
  O5       1.0000 0.28603  0.34880  0.03938  Biso   1.000  O
  O6       1.0000 0.28416  0.40944  0.05870  Biso   1.000  O
  O7       1.0000 0.09883  0.21493  0.08183  Biso   1.000  O
  O8       1.0000 0.14650  0.19014  0.04635  Biso   1.000  O
  C1       1.0000 0.17407  0.39430  0.10102  Biso   1.000  C
  C2       1.0000 0.15435  0.36300  0.08924  Biso   1.000  C
  H1       1.0000 0.12890  0.36040  0.09600  Biso   1.000  H
  C3       1.0000 0.17170  0.33476  0.06718  Biso   1.000  C
  C4       1.0000 0.20934  0.33937  0.05672  Biso   1.000  C
  H2       1.0000 0.22130  0.32070  0.04220  Biso   1.000  H
  C5       1.0000 0.22930  0.37126  0.06748  Biso   1.000  C
  C6       1.0000 0.21174  0.39856  0.08973  Biso   1.000  C
  H3       1.0000 0.22530  0.42000  0.09720  Biso   1.000  H
  C7       1.0000 0.15476  0.42425  0.12497  Biso   1.000  C
  C8       1.0000 0.14984  0.30038  0.05388  Biso   1.000  C
  C9       1.0000 0.26960  0.37614  0.05459  Biso   1.000  C
  C10      1.0000 0.12449  0.18994  0.07400  Biso   1.000  C
  C11      1.0000 0.12710  0.15811  0.10332  Biso   1.000  C
  C12      1.0000 0.15605  0.13190  0.10102  Biso   1.000  C
  H4       1.0000 0.17470  0.13370  0.08110  Biso   1.000  H
  N1       1.0000 0.03190  0.44860  0.14370  Biso   1.000  N
  C13      1.0000 0.01940  0.46650  0.11000  Biso   1.000  C
  N2       1.0000 0.03150  0.26480  0.07130  Biso   1.000  N
  C14      1.0000 0.01910  0.29240  0.09640  Biso   1.000  C
  C15      1.0000 0.03900  0.31860  0.12000  Biso   1.000  C
  H5       1.0000 0.06630  0.31890  0.11990  Biso   1.000  H
  C16      1.0000 0.01950  0.34270  0.14190  Biso   1.000  C
  H6       1.0000 0.03310  0.36010  0.15810  Biso   1.000  H
  N3       1.0000 0.03170  0.44260  0.14860  Biso   1.000  N
  H7       1.0000 0.97430  0.45300  0.21960  Biso   1.000  H
  H8       1.0000 0.01260  0.47560  0.21620  Biso   1.000  H
  H9       1.0000 0.01320  0.43150  0.22290  Biso   1.000  H
  C17      1.0000 0.01940  0.43720  0.11190  Biso   1.000  C
  C18      1.0000 0.03960  0.43230  0.07900  Biso   1.000  C
  H10      1.0000 0.06690  0.43230  0.07940  Biso   1.000  H
  C19      1.0000 0.01980  0.42720  0.04490  Biso   1.000  C
  H11      1.0000 0.03350  0.42480  0.02140  Biso   1.000  H
  N4       1.0000 0.03130  0.27490  0.04680  Biso   1.000  N
  H12      1.0000 0.97430  0.22020  0.09500  Biso   1.000  H
  H13      1.0000 0.01280  0.23500  0.11180  Biso   1.000  H
  H14      1.0000 0.01290  0.20550  0.07840  Biso   1.000  H
  C20      1.0000 0.01940  0.30310  0.02210  Biso   1.000  C
  C21      1.0000 0.01960  0.35370  0.97710  Biso   1.000  C
  H15      1.0000 0.03320  0.37150  0.96140  Biso   1.000  H
  H16      1.0000 0.97430  0.41360  0.20980  Biso   1.000  H
  H17      1.0000 0.01280  0.39380  0.19930  Biso   1.000  H
  H18      1.0000 0.01300  0.43320  0.22020  Biso   1.000  H
  H19      1.0000 0.97430  0.21150  0.02310  Biso   1.000  H
  H20      1.0000 0.01280  0.19650  0.03970  Biso   1.000  H
  H21      1.0000 0.01290  0.22640  0.00660  Biso   1.000  H
  H22      1.0000 0.03320  0.51120  0.02660  Biso   1.000  H
  C22      1.0000 0.04020  0.48300  0.07870  Biso   1.000  C
  H23      1.0000 0.06750  0.48260  0.07860  Biso   1.000  H
  Zn3      1.0000 0.58384  0.75700  0.55076  Biso   1.000  Zn
  Zn4      1.0000 0.58515  0.94964  0.66150  Biso   1.000  Zn
  O9       1.0000 0.67349  0.95310  0.63403  Biso   1.000  O
  O10      1.0000 0.62083  0.91720  0.63391  Biso   1.000  O
  O11      1.0000 0.66713  0.77375  0.53971  Biso   1.000  O
  O12      1.0000 0.61432  0.80176  0.55977  Biso   1.000  O
  O13      1.0000 0.78603  0.84880  0.53938  Biso   1.000  O
  O14      1.0000 0.78416  0.90944  0.55870  Biso   1.000  O
  O15      1.0000 0.59883  0.71493  0.58183  Biso   1.000  O
  O16      1.0000 0.64650  0.69014  0.54635  Biso   1.000  O
  C23      1.0000 0.67407  0.89430  0.60102  Biso   1.000  C
  C24      1.0000 0.65435  0.86300  0.58924  Biso   1.000  C
  H24      1.0000 0.62890  0.86040  0.59600  Biso   1.000  H
  C25      1.0000 0.67170  0.83476  0.56718  Biso   1.000  C
  C26      1.0000 0.70934  0.83937  0.55672  Biso   1.000  C
  H25      1.0000 0.72130  0.82070  0.54220  Biso   1.000  H
  C27      1.0000 0.72930  0.87126  0.56748  Biso   1.000  C
  C28      1.0000 0.71174  0.89856  0.58973  Biso   1.000  C
  H26      1.0000 0.72530  0.92000  0.59720  Biso   1.000  H
  C29      1.0000 0.65476  0.92425  0.62497  Biso   1.000  C
  C30      1.0000 0.64984  0.80038  0.55388  Biso   1.000  C
  C31      1.0000 0.76960  0.87614  0.55459  Biso   1.000  C
  C32      1.0000 0.62449  0.68994  0.57400  Biso   1.000  C
  C33      1.0000 0.62710  0.65811  0.60332  Biso   1.000  C
  C34      1.0000 0.65605  0.63190  0.60102  Biso   1.000  C
  H27      1.0000 0.67470  0.63370  0.58110  Biso   1.000  H
  N5       1.0000 0.53190  0.94860  0.64370  Biso   1.000  N
  C35      1.0000 0.51940  0.96650  0.61000  Biso   1.000  C
  N6       1.0000 0.53150  0.76480  0.57130  Biso   1.000  N
  C36      1.0000 0.51910  0.79240  0.59640  Biso   1.000  C
  C37      1.0000 0.53900  0.81860  0.62000  Biso   1.000  C
  H28      1.0000 0.56630  0.81890  0.61990  Biso   1.000  H
  C38      1.0000 0.51950  0.84270  0.64190  Biso   1.000  C
  H29      1.0000 0.53310  0.86010  0.65810  Biso   1.000  H
  N7       1.0000 0.53170  0.94260  0.64860  Biso   1.000  N
  H30      1.0000 0.47430  0.95300  0.71960  Biso   1.000  H
  H31      1.0000 0.51260  0.97560  0.71620  Biso   1.000  H
  H32      1.0000 0.51320  0.93150  0.72290  Biso   1.000  H
  C39      1.0000 0.51940  0.93720  0.61190  Biso   1.000  C
  C40      1.0000 0.53960  0.93230  0.57900  Biso   1.000  C
  H33      1.0000 0.56690  0.93230  0.57940  Biso   1.000  H
  C41      1.0000 0.51980  0.92720  0.54490  Biso   1.000  C
  H34      1.0000 0.53350  0.92480  0.52140  Biso   1.000  H
  N8       1.0000 0.53130  0.77490  0.54680  Biso   1.000  N
  H35      1.0000 0.47430  0.72020  0.59500  Biso   1.000  H
  H36      1.0000 0.51280  0.73500  0.61180  Biso   1.000  H
  H37      1.0000 0.51290  0.70550  0.57840  Biso   1.000  H
  C42      1.0000 0.51940  0.80310  0.52210  Biso   1.000  C
  C43      1.0000 0.51960  0.85370  0.47710  Biso   1.000  C
  H38      1.0000 0.53320  0.87150  0.46140  Biso   1.000  H
  H39      1.0000 0.47430  0.91360  0.70980  Biso   1.000  H
  H40      1.0000 0.51280  0.89380  0.69930  Biso   1.000  H
  H41      1.0000 0.51300  0.93320  0.72020  Biso   1.000  H
  H42      1.0000 0.47430  0.71150  0.52310  Biso   1.000  H
  H43      1.0000 0.51280  0.69650  0.53970  Biso   1.000  H
  H44      1.0000 0.51290  0.72640  0.50660  Biso   1.000  H
  H45      1.0000 0.53320  0.01120  0.52660  Biso   1.000  H
  C44      1.0000 0.54020  0.98300  0.57870  Biso   1.000  C
  H46      1.0000 0.56750  0.98260  0.57860  Biso   1.000  H
  Zn5      1.0000 0.91616  0.74300  0.05076  Biso   1.000  Zn
  Zn6      1.0000 0.91485  0.55036  0.16150  Biso   1.000  Zn
  O17      1.0000 0.82651  0.54690  0.13403  Biso   1.000  O
  O18      1.0000 0.87917  0.58280  0.13391  Biso   1.000  O
  O19      1.0000 0.83287  0.72625  0.03971  Biso   1.000  O
  O20      1.0000 0.88568  0.69824  0.05977  Biso   1.000  O
  O21      1.0000 0.71397  0.65120  0.03938  Biso   1.000  O
  O22      1.0000 0.71584  0.59056  0.05870  Biso   1.000  O
  O23      1.0000 0.90117  0.78507  0.08183  Biso   1.000  O
  O24      1.0000 0.85350  0.80986  0.04635  Biso   1.000  O
  C45      1.0000 0.82593  0.60570  0.10102  Biso   1.000  C
  C46      1.0000 0.84565  0.63700  0.08924  Biso   1.000  C
  H47      1.0000 0.87110  0.63960  0.09600  Biso   1.000  H
  C47      1.0000 0.82830  0.66524  0.06718  Biso   1.000  C
  C48      1.0000 0.79066  0.66063  0.05672  Biso   1.000  C
  H48      1.0000 0.77870  0.67930  0.04220  Biso   1.000  H
  C49      1.0000 0.77070  0.62874  0.06748  Biso   1.000  C
  C50      1.0000 0.78826  0.60144  0.08973  Biso   1.000  C
  H49      1.0000 0.77470  0.58000  0.09720  Biso   1.000  H
  C51      1.0000 0.84524  0.57575  0.12497  Biso   1.000  C
  C52      1.0000 0.85016  0.69962  0.05388  Biso   1.000  C
  C53      1.0000 0.73040  0.62386  0.05459  Biso   1.000  C
  C54      1.0000 0.87551  0.81006  0.07400  Biso   1.000  C
  C55      1.0000 0.87290  0.84189  0.10332  Biso   1.000  C
  C56      1.0000 0.84395  0.86810  0.10102  Biso   1.000  C
  H50      1.0000 0.82530  0.86630  0.08110  Biso   1.000  H
  N9       1.0000 0.96810  0.55140  0.14370  Biso   1.000  N
  C57      1.0000 0.98060  0.53350  0.11000  Biso   1.000  C
  N10      1.0000 0.96850  0.73520  0.07130  Biso   1.000  N
  C58      1.0000 0.98090  0.70760  0.09640  Biso   1.000  C
  C59      1.0000 0.96100  0.68140  0.12000  Biso   1.000  C
  H51      1.0000 0.93370  0.68110  0.11990  Biso   1.000  H
  C60      1.0000 0.98050  0.65730  0.14190  Biso   1.000  C
  H52      1.0000 0.96690  0.63990  0.15810  Biso   1.000  H
  N11      1.0000 0.96830  0.55740  0.14860  Biso   1.000  N
  H53      1.0000 0.02570  0.54700  0.21960  Biso   1.000  H
  H54      1.0000 0.98740  0.52440  0.21620  Biso   1.000  H
  H55      1.0000 0.98680  0.56850  0.22290  Biso   1.000  H
  C61      1.0000 0.98060  0.56280  0.11190  Biso   1.000  C
  C62      1.0000 0.96040  0.56770  0.07900  Biso   1.000  C
  H56      1.0000 0.93310  0.56770  0.07940  Biso   1.000  H
  C63      1.0000 0.98020  0.57280  0.04490  Biso   1.000  C
  H57      1.0000 0.96650  0.57520  0.02140  Biso   1.000  H
  N12      1.0000 0.96870  0.72510  0.04680  Biso   1.000  N
  H58      1.0000 0.02570  0.77980  0.09500  Biso   1.000  H
  H59      1.0000 0.98720  0.76500  0.11180  Biso   1.000  H
  H60      1.0000 0.98710  0.79450  0.07840  Biso   1.000  H
  C64      1.0000 0.98060  0.69690  0.02210  Biso   1.000  C
  C65      1.0000 0.98040  0.64630  0.97710  Biso   1.000  C
  H61      1.0000 0.96680  0.62850  0.96140  Biso   1.000  H
  H62      1.0000 0.02570  0.58640  0.20980  Biso   1.000  H
  H63      1.0000 0.98720  0.60620  0.19930  Biso   1.000  H
  H64      1.0000 0.98700  0.56680  0.22020  Biso   1.000  H
  H65      1.0000 0.02570  0.78850  0.02310  Biso   1.000  H
  H66      1.0000 0.98720  0.80350  0.03970  Biso   1.000  H
  H67      1.0000 0.98710  0.77360  0.00660  Biso   1.000  H
  H68      1.0000 0.96680  0.48880  0.02660  Biso   1.000  H
  C66      1.0000 0.95980  0.51700  0.07870  Biso   1.000  C
  H69      1.0000 0.93250  0.51740  0.07860  Biso   1.000  H
  Zn7      1.0000 0.41616  0.24300  0.55076  Biso   1.000  Zn
  Zn8      1.0000 0.41485  0.05036  0.66150  Biso   1.000  Zn
  O25      1.0000 0.32651  0.04690  0.63403  Biso   1.000  O
  O26      1.0000 0.37917  0.08280  0.63391  Biso   1.000  O
  O27      1.0000 0.33287  0.22625  0.53971  Biso   1.000  O
  O28      1.0000 0.38568  0.19824  0.55977  Biso   1.000  O
  O29      1.0000 0.21397  0.15120  0.53938  Biso   1.000  O
  O30      1.0000 0.21584  0.09056  0.55870  Biso   1.000  O
  O31      1.0000 0.40117  0.28507  0.58183  Biso   1.000  O
  O32      1.0000 0.35350  0.30986  0.54635  Biso   1.000  O
  C67      1.0000 0.32593  0.10570  0.60102  Biso   1.000  C
  C68      1.0000 0.34565  0.13700  0.58924  Biso   1.000  C
  H70      1.0000 0.37110  0.13960  0.59600  Biso   1.000  H
  C69      1.0000 0.32830  0.16524  0.56718  Biso   1.000  C
  C70      1.0000 0.29066  0.16063  0.55672  Biso   1.000  C
  H71      1.0000 0.27870  0.17930  0.54220  Biso   1.000  H
  C71      1.0000 0.27070  0.12874  0.56748  Biso   1.000  C
  C72      1.0000 0.28826  0.10144  0.58973  Biso   1.000  C
  H72      1.0000 0.27470  0.08000  0.59720  Biso   1.000  H
  C73      1.0000 0.34524  0.07575  0.62497  Biso   1.000  C
  C74      1.0000 0.35016  0.19962  0.55388  Biso   1.000  C
  C75      1.0000 0.23040  0.12386  0.55459  Biso   1.000  C
  C76      1.0000 0.37551  0.31006  0.57400  Biso   1.000  C
  C77      1.0000 0.37290  0.34189  0.60332  Biso   1.000  C
  C78      1.0000 0.34395  0.36810  0.60102  Biso   1.000  C
  H73      1.0000 0.32530  0.36630  0.58110  Biso   1.000  H
  N13      1.0000 0.46810  0.05140  0.64370  Biso   1.000  N
  C79      1.0000 0.48060  0.03350  0.61000  Biso   1.000  C
  N14      1.0000 0.46850  0.23520  0.57130  Biso   1.000  N
  C80      1.0000 0.48090  0.20760  0.59640  Biso   1.000  C
  C81      1.0000 0.46100  0.18140  0.62000  Biso   1.000  C
  H74      1.0000 0.43370  0.18110  0.61990  Biso   1.000  H
  C82      1.0000 0.48050  0.15730  0.64190  Biso   1.000  C
  H75      1.0000 0.46690  0.13990  0.65810  Biso   1.000  H
  N15      1.0000 0.46830  0.05740  0.64860  Biso   1.000  N
  H76      1.0000 0.52570  0.04700  0.71960  Biso   1.000  H
  H77      1.0000 0.48740  0.02440  0.71620  Biso   1.000  H
  H78      1.0000 0.48680  0.06850  0.72290  Biso   1.000  H
  C83      1.0000 0.48060  0.06280  0.61190  Biso   1.000  C
  C84      1.0000 0.46040  0.06770  0.57900  Biso   1.000  C
  H79      1.0000 0.43310  0.06770  0.57940  Biso   1.000  H
  C85      1.0000 0.48020  0.07280  0.54490  Biso   1.000  C
  H80      1.0000 0.46650  0.07520  0.52140  Biso   1.000  H
  N16      1.0000 0.46870  0.22510  0.54680  Biso   1.000  N
  H81      1.0000 0.52570  0.27980  0.59500  Biso   1.000  H
  H82      1.0000 0.48720  0.26500  0.61180  Biso   1.000  H
  H83      1.0000 0.48710  0.29450  0.57840  Biso   1.000  H
  C86      1.0000 0.48060  0.19690  0.52210  Biso   1.000  C
  C87      1.0000 0.48040  0.14630  0.47710  Biso   1.000  C
  H84      1.0000 0.46680  0.12850  0.46140  Biso   1.000  H
  H85      1.0000 0.52570  0.08640  0.70980  Biso   1.000  H
  H86      1.0000 0.48720  0.10620  0.69930  Biso   1.000  H
  H87      1.0000 0.48700  0.06680  0.72020  Biso   1.000  H
  H88      1.0000 0.52570  0.28850  0.52310  Biso   1.000  H
  H89      1.0000 0.48720  0.30350  0.53970  Biso   1.000  H
  H90      1.0000 0.48710  0.27360  0.50660  Biso   1.000  H
  H91      1.0000 0.46680  0.98880  0.52660  Biso   1.000  H
  C88      1.0000 0.45980  0.01700  0.57870  Biso   1.000  C
  H92      1.0000 0.43250  0.01740  0.57860  Biso   1.000  H
  Zn9      1.0000 0.91616  0.25700  0.94924  Biso   1.000  Zn
  Zn10     1.0000 0.91485  0.44964  0.83850  Biso   1.000  Zn
  O33      1.0000 0.82651  0.45310  0.86597  Biso   1.000  O
  O34      1.0000 0.87917  0.41720  0.86609  Biso   1.000  O
  O35      1.0000 0.83287  0.27375  0.96029  Biso   1.000  O
  O36      1.0000 0.88568  0.30176  0.94023  Biso   1.000  O
  O37      1.0000 0.71397  0.34880  0.96062  Biso   1.000  O
  O38      1.0000 0.71584  0.40944  0.94130  Biso   1.000  O
  O39      1.0000 0.90117  0.21493  0.91817  Biso   1.000  O
  O40      1.0000 0.85350  0.19014  0.95365  Biso   1.000  O
  C89      1.0000 0.82593  0.39430  0.89898  Biso   1.000  C
  C90      1.0000 0.84565  0.36300  0.91076  Biso   1.000  C
  H93      1.0000 0.87110  0.36040  0.90400  Biso   1.000  H
  C91      1.0000 0.82830  0.33476  0.93282  Biso   1.000  C
  C92      1.0000 0.79066  0.33937  0.94328  Biso   1.000  C
  H94      1.0000 0.77870  0.32070  0.95780  Biso   1.000  H
  C93      1.0000 0.77070  0.37126  0.93252  Biso   1.000  C
  C94      1.0000 0.78826  0.39856  0.91027  Biso   1.000  C
  H95      1.0000 0.77470  0.42000  0.90280  Biso   1.000  H
  C95      1.0000 0.84524  0.42425  0.87503  Biso   1.000  C
  C96      1.0000 0.85016  0.30038  0.94612  Biso   1.000  C
  C97      1.0000 0.73040  0.37614  0.94541  Biso   1.000  C
  C98      1.0000 0.87551  0.18994  0.92600  Biso   1.000  C
  C99      1.0000 0.87290  0.15811  0.89668  Biso   1.000  C
  C100     1.0000 0.84395  0.13190  0.89898  Biso   1.000  C
  H96      1.0000 0.82530  0.13370  0.91890  Biso   1.000  H
  N17      1.0000 0.96810  0.44860  0.85630  Biso   1.000  N
  C101     1.0000 0.98060  0.46650  0.89000  Biso   1.000  C
  N18      1.0000 0.96850  0.26480  0.92870  Biso   1.000  N
  C102     1.0000 0.98090  0.29240  0.90360  Biso   1.000  C
  C103     1.0000 0.96100  0.31860  0.88000  Biso   1.000  C
  H97      1.0000 0.93370  0.31890  0.88010  Biso   1.000  H
  C104     1.0000 0.98050  0.34270  0.85810  Biso   1.000  C
  H98      1.0000 0.96690  0.36010  0.84190  Biso   1.000  H
  N19      1.0000 0.96830  0.44260  0.85140  Biso   1.000  N
  H99      1.0000 0.02570  0.45300  0.78040  Biso   1.000  H
  H100     1.0000 0.98740  0.47560  0.78380  Biso   1.000  H
  H101     1.0000 0.98680  0.43150  0.77710  Biso   1.000  H
  C105     1.0000 0.98060  0.43720  0.88810  Biso   1.000  C
  C106     1.0000 0.96040  0.43230  0.92100  Biso   1.000  C
  H102     1.0000 0.93310  0.43230  0.92060  Biso   1.000  H
  C107     1.0000 0.98020  0.42720  0.95510  Biso   1.000  C
  H103     1.0000 0.96650  0.42480  0.97860  Biso   1.000  H
  N20      1.0000 0.96870  0.27490  0.95320  Biso   1.000  N
  H104     1.0000 0.02570  0.22020  0.90500  Biso   1.000  H
  H105     1.0000 0.98720  0.23500  0.88820  Biso   1.000  H
  H106     1.0000 0.98710  0.20550  0.92160  Biso   1.000  H
  C108     1.0000 0.98060  0.30310  0.97790  Biso   1.000  C
  C109     1.0000 0.98040  0.35370  0.02290  Biso   1.000  C
  H107     1.0000 0.96680  0.37150  0.03860  Biso   1.000  H
  H108     1.0000 0.02570  0.41360  0.79020  Biso   1.000  H
  H109     1.0000 0.98720  0.39380  0.80070  Biso   1.000  H
  H110     1.0000 0.98700  0.43320  0.77980  Biso   1.000  H
  H111     1.0000 0.02570  0.21150  0.97690  Biso   1.000  H
  H112     1.0000 0.98720  0.19650  0.96030  Biso   1.000  H
  H113     1.0000 0.98710  0.22640  0.99340  Biso   1.000  H
  H114     1.0000 0.96680  0.51120  0.97340  Biso   1.000  H
  C110     1.0000 0.95980  0.48300  0.92130  Biso   1.000  C
  H115     1.0000 0.93250  0.48260  0.92140  Biso   1.000  H
  Zn11     1.0000 0.41616  0.75700  0.44924  Biso   1.000  Zn
  Zn12     1.0000 0.41485  0.94964  0.33850  Biso   1.000  Zn
  O41      1.0000 0.32651  0.95310  0.36597  Biso   1.000  O
  O42      1.0000 0.37917  0.91720  0.36609  Biso   1.000  O
  O43      1.0000 0.33287  0.77375  0.46029  Biso   1.000  O
  O44      1.0000 0.38568  0.80176  0.44023  Biso   1.000  O
  O45      1.0000 0.21397  0.84880  0.46062  Biso   1.000  O
  O46      1.0000 0.21584  0.90944  0.44130  Biso   1.000  O
  O47      1.0000 0.40117  0.71493  0.41817  Biso   1.000  O
  O48      1.0000 0.35350  0.69014  0.45365  Biso   1.000  O
  C111     1.0000 0.32593  0.89430  0.39898  Biso   1.000  C
  C112     1.0000 0.34565  0.86300  0.41076  Biso   1.000  C
  H116     1.0000 0.37110  0.86040  0.40400  Biso   1.000  H
  C113     1.0000 0.32830  0.83476  0.43282  Biso   1.000  C
  C114     1.0000 0.29066  0.83937  0.44328  Biso   1.000  C
  H117     1.0000 0.27870  0.82070  0.45780  Biso   1.000  H
  C115     1.0000 0.27070  0.87126  0.43252  Biso   1.000  C
  C116     1.0000 0.28826  0.89856  0.41027  Biso   1.000  C
  H118     1.0000 0.27470  0.92000  0.40280  Biso   1.000  H
  C117     1.0000 0.34524  0.92425  0.37503  Biso   1.000  C
  C118     1.0000 0.35016  0.80038  0.44612  Biso   1.000  C
  C119     1.0000 0.23040  0.87614  0.44541  Biso   1.000  C
  C120     1.0000 0.37551  0.68994  0.42600  Biso   1.000  C
  C121     1.0000 0.37290  0.65811  0.39668  Biso   1.000  C
  C122     1.0000 0.34395  0.63190  0.39898  Biso   1.000  C
  H119     1.0000 0.32530  0.63370  0.41890  Biso   1.000  H
  N21      1.0000 0.46810  0.94860  0.35630  Biso   1.000  N
  C123     1.0000 0.48060  0.96650  0.39000  Biso   1.000  C
  N22      1.0000 0.46850  0.76480  0.42870  Biso   1.000  N
  C124     1.0000 0.48090  0.79240  0.40360  Biso   1.000  C
  C125     1.0000 0.46100  0.81860  0.38000  Biso   1.000  C
  H120     1.0000 0.43370  0.81890  0.38010  Biso   1.000  H
  C126     1.0000 0.48050  0.84270  0.35810  Biso   1.000  C
  H121     1.0000 0.46690  0.86010  0.34190  Biso   1.000  H
  N23      1.0000 0.46830  0.94260  0.35140  Biso   1.000  N
  H122     1.0000 0.52570  0.95300  0.28040  Biso   1.000  H
  H123     1.0000 0.48740  0.97560  0.28380  Biso   1.000  H
  H124     1.0000 0.48680  0.93150  0.27710  Biso   1.000  H
  C127     1.0000 0.48060  0.93720  0.38810  Biso   1.000  C
  C128     1.0000 0.46040  0.93230  0.42100  Biso   1.000  C
  H125     1.0000 0.43310  0.93230  0.42060  Biso   1.000  H
  C129     1.0000 0.48020  0.92720  0.45510  Biso   1.000  C
  H126     1.0000 0.46650  0.92480  0.47860  Biso   1.000  H
  N24      1.0000 0.46870  0.77490  0.45320  Biso   1.000  N
  H127     1.0000 0.52570  0.72020  0.40500  Biso   1.000  H
  H128     1.0000 0.48720  0.73500  0.38820  Biso   1.000  H
  H129     1.0000 0.48710  0.70550  0.42160  Biso   1.000  H
  C130     1.0000 0.48060  0.80310  0.47790  Biso   1.000  C
  C131     1.0000 0.48040  0.85370  0.52290  Biso   1.000  C
  H130     1.0000 0.46680  0.87150  0.53860  Biso   1.000  H
  H131     1.0000 0.52570  0.91360  0.29020  Biso   1.000  H
  H132     1.0000 0.48720  0.89380  0.30070  Biso   1.000  H
  H133     1.0000 0.48700  0.93320  0.27980  Biso   1.000  H
  H134     1.0000 0.52570  0.71150  0.47690  Biso   1.000  H
  H135     1.0000 0.48720  0.69650  0.46030  Biso   1.000  H
  H136     1.0000 0.48710  0.72640  0.49340  Biso   1.000  H
  H137     1.0000 0.46680  0.01120  0.47340  Biso   1.000  H
  C132     1.0000 0.45980  0.98300  0.42130  Biso   1.000  C
  H138     1.0000 0.43250  0.98260  0.42140  Biso   1.000  H
  Zn13     1.0000 0.08384  0.74300  0.94924  Biso   1.000  Zn
  Zn14     1.0000 0.08515  0.55036  0.83850  Biso   1.000  Zn
  O49      1.0000 0.17349  0.54690  0.86597  Biso   1.000  O
  O50      1.0000 0.12083  0.58280  0.86609  Biso   1.000  O
  O51      1.0000 0.16713  0.72625  0.96029  Biso   1.000  O
  O52      1.0000 0.11432  0.69824  0.94023  Biso   1.000  O
  O53      1.0000 0.28603  0.65120  0.96062  Biso   1.000  O
  O54      1.0000 0.28416  0.59056  0.94130  Biso   1.000  O
  O55      1.0000 0.09883  0.78507  0.91817  Biso   1.000  O
  O56      1.0000 0.14650  0.80986  0.95365  Biso   1.000  O
  C133     1.0000 0.17407  0.60570  0.89898  Biso   1.000  C
  C134     1.0000 0.15435  0.63700  0.91076  Biso   1.000  C
  H139     1.0000 0.12890  0.63960  0.90400  Biso   1.000  H
  C135     1.0000 0.17170  0.66524  0.93282  Biso   1.000  C
  C136     1.0000 0.20934  0.66063  0.94328  Biso   1.000  C
  H140     1.0000 0.22130  0.67930  0.95780  Biso   1.000  H
  C137     1.0000 0.22930  0.62874  0.93252  Biso   1.000  C
  C138     1.0000 0.21174  0.60144  0.91027  Biso   1.000  C
  H141     1.0000 0.22530  0.58000  0.90280  Biso   1.000  H
  C139     1.0000 0.15476  0.57575  0.87503  Biso   1.000  C
  C140     1.0000 0.14984  0.69962  0.94612  Biso   1.000  C
  C141     1.0000 0.26960  0.62386  0.94541  Biso   1.000  C
  C142     1.0000 0.12449  0.81006  0.92600  Biso   1.000  C
  C143     1.0000 0.12710  0.84189  0.89668  Biso   1.000  C
  C144     1.0000 0.15605  0.86810  0.89898  Biso   1.000  C
  H142     1.0000 0.17470  0.86630  0.91890  Biso   1.000  H
  N25      1.0000 0.03190  0.55140  0.85630  Biso   1.000  N
  C145     1.0000 0.01940  0.53350  0.89000  Biso   1.000  C
  N26      1.0000 0.03150  0.73520  0.92870  Biso   1.000  N
  C146     1.0000 0.01910  0.70760  0.90360  Biso   1.000  C
  C147     1.0000 0.03900  0.68140  0.88000  Biso   1.000  C
  H143     1.0000 0.06630  0.68110  0.88010  Biso   1.000  H
  C148     1.0000 0.01950  0.65730  0.85810  Biso   1.000  C
  H144     1.0000 0.03310  0.63990  0.84190  Biso   1.000  H
  N27      1.0000 0.03170  0.55740  0.85140  Biso   1.000  N
  H145     1.0000 0.97430  0.54700  0.78040  Biso   1.000  H
  H146     1.0000 0.01260  0.52440  0.78380  Biso   1.000  H
  H147     1.0000 0.01320  0.56850  0.77710  Biso   1.000  H
  C149     1.0000 0.01940  0.56280  0.88810  Biso   1.000  C
  C150     1.0000 0.03960  0.56770  0.92100  Biso   1.000  C
  H148     1.0000 0.06690  0.56770  0.92060  Biso   1.000  H
  C151     1.0000 0.01980  0.57280  0.95510  Biso   1.000  C
  H149     1.0000 0.03350  0.57520  0.97860  Biso   1.000  H
  N28      1.0000 0.03130  0.72510  0.95320  Biso   1.000  N
  H150     1.0000 0.97430  0.77980  0.90500  Biso   1.000  H
  H151     1.0000 0.01280  0.76500  0.88820  Biso   1.000  H
  H152     1.0000 0.01290  0.79450  0.92160  Biso   1.000  H
  C152     1.0000 0.01940  0.69690  0.97790  Biso   1.000  C
  C153     1.0000 0.01960  0.64630  0.02290  Biso   1.000  C
  H153     1.0000 0.03320  0.62850  0.03860  Biso   1.000  H
  H154     1.0000 0.97430  0.58640  0.79020  Biso   1.000  H
  H155     1.0000 0.01280  0.60620  0.80070  Biso   1.000  H
  H156     1.0000 0.01300  0.56680  0.77980  Biso   1.000  H
  H157     1.0000 0.97430  0.78850  0.97690  Biso   1.000  H
  H158     1.0000 0.01280  0.80350  0.96030  Biso   1.000  H
  H159     1.0000 0.01290  0.77360  0.99340  Biso   1.000  H
  H160     1.0000 0.03320  0.48880  0.97340  Biso   1.000  H
  C154     1.0000 0.04020  0.51700  0.92130  Biso   1.000  C
  H161     1.0000 0.06750  0.51740  0.92140  Biso   1.000  H
  Zn15     1.0000 0.58384  0.24300  0.44924  Biso   1.000  Zn
  Zn16     1.0000 0.58515  0.05036  0.33850  Biso   1.000  Zn
  O57      1.0000 0.67349  0.04690  0.36597  Biso   1.000  O
  O58      1.0000 0.62083  0.08280  0.36609  Biso   1.000  O
  O59      1.0000 0.66713  0.22625  0.46029  Biso   1.000  O
  O60      1.0000 0.61432  0.19824  0.44023  Biso   1.000  O
  O61      1.0000 0.78603  0.15120  0.46062  Biso   1.000  O
  O62      1.0000 0.78416  0.09056  0.44130  Biso   1.000  O
  O63      1.0000 0.59883  0.28507  0.41817  Biso   1.000  O
  O64      1.0000 0.64650  0.30986  0.45365  Biso   1.000  O
  C155     1.0000 0.67407  0.10570  0.39898  Biso   1.000  C
  C156     1.0000 0.65435  0.13700  0.41076  Biso   1.000  C
  H162     1.0000 0.62890  0.13960  0.40400  Biso   1.000  H
  C157     1.0000 0.67170  0.16524  0.43282  Biso   1.000  C
  C158     1.0000 0.70934  0.16063  0.44328  Biso   1.000  C
  H163     1.0000 0.72130  0.17930  0.45780  Biso   1.000  H
  C159     1.0000 0.72930  0.12874  0.43252  Biso   1.000  C
  C160     1.0000 0.71174  0.10144  0.41027  Biso   1.000  C
  H164     1.0000 0.72530  0.08000  0.40280  Biso   1.000  H
  C161     1.0000 0.65476  0.07575  0.37503  Biso   1.000  C
  C162     1.0000 0.64984  0.19962  0.44612  Biso   1.000  C
  C163     1.0000 0.76960  0.12386  0.44541  Biso   1.000  C
  C164     1.0000 0.62449  0.31006  0.42600  Biso   1.000  C
  C165     1.0000 0.62710  0.34189  0.39668  Biso   1.000  C
  C166     1.0000 0.65605  0.36810  0.39898  Biso   1.000  C
  H165     1.0000 0.67470  0.36630  0.41890  Biso   1.000  H
  N29      1.0000 0.53190  0.05140  0.35630  Biso   1.000  N
  C167     1.0000 0.51940  0.03350  0.39000  Biso   1.000  C
  N30      1.0000 0.53150  0.23520  0.42870  Biso   1.000  N
  C168     1.0000 0.51910  0.20760  0.40360  Biso   1.000  C
  C169     1.0000 0.53900  0.18140  0.38000  Biso   1.000  C
  H166     1.0000 0.56630  0.18110  0.38010  Biso   1.000  H
  C170     1.0000 0.51950  0.15730  0.35810  Biso   1.000  C
  H167     1.0000 0.53310  0.13990  0.34190  Biso   1.000  H
  N31      1.0000 0.53170  0.05740  0.35140  Biso   1.000  N
  H168     1.0000 0.47430  0.04700  0.28040  Biso   1.000  H
  H169     1.0000 0.51260  0.02440  0.28380  Biso   1.000  H
  H170     1.0000 0.51320  0.06850  0.27710  Biso   1.000  H
  C171     1.0000 0.51940  0.06280  0.38810  Biso   1.000  C
  C172     1.0000 0.53960  0.06770  0.42100  Biso   1.000  C
  H171     1.0000 0.56690  0.06770  0.42060  Biso   1.000  H
  C173     1.0000 0.51980  0.07280  0.45510  Biso   1.000  C
  H172     1.0000 0.53350  0.07520  0.47860  Biso   1.000  H
  N32      1.0000 0.53130  0.22510  0.45320  Biso   1.000  N
  H173     1.0000 0.47430  0.27980  0.40500  Biso   1.000  H
  H174     1.0000 0.51280  0.26500  0.38820  Biso   1.000  H
  H175     1.0000 0.51290  0.29450  0.42160  Biso   1.000  H
  C174     1.0000 0.51940  0.19690  0.47790  Biso   1.000  C
  C175     1.0000 0.51960  0.14630  0.52290  Biso   1.000  C
  H176     1.0000 0.53320  0.12850  0.53860  Biso   1.000  H
  H177     1.0000 0.47430  0.08640  0.29020  Biso   1.000  H
  H178     1.0000 0.51280  0.10620  0.30070  Biso   1.000  H
  H179     1.0000 0.51300  0.06680  0.27980  Biso   1.000  H
  H180     1.0000 0.47430  0.28850  0.47690  Biso   1.000  H
  H181     1.0000 0.51280  0.30350  0.46030  Biso   1.000  H
  H182     1.0000 0.51290  0.27360  0.49340  Biso   1.000  H
  H183     1.0000 0.53320  0.98880  0.47340  Biso   1.000  H
  C176     1.0000 0.54020  0.01700  0.42130  Biso   1.000  C
  H184     1.0000 0.56750  0.01740  0.42140  Biso   1.000  H
  Zn17     1.0000 0.05076  0.08384  0.25700  Biso   1.000  Zn
  Zn18     1.0000 0.16150  0.08515  0.44964  Biso   1.000  Zn
  O65      1.0000 0.13403  0.17349  0.45310  Biso   1.000  O
  O66      1.0000 0.13391  0.12083  0.41720  Biso   1.000  O
  O67      1.0000 0.03971  0.16713  0.27375  Biso   1.000  O
  O68      1.0000 0.05977  0.11432  0.30176  Biso   1.000  O
  O69      1.0000 0.03938  0.28603  0.34880  Biso   1.000  O
  O70      1.0000 0.05870  0.28416  0.40944  Biso   1.000  O
  O71      1.0000 0.08183  0.09883  0.21493  Biso   1.000  O
  O72      1.0000 0.04635  0.14650  0.19014  Biso   1.000  O
  C177     1.0000 0.10102  0.17407  0.39430  Biso   1.000  C
  C178     1.0000 0.08924  0.15435  0.36300  Biso   1.000  C
  H185     1.0000 0.09600  0.12890  0.36040  Biso   1.000  H
  C179     1.0000 0.06718  0.17170  0.33476  Biso   1.000  C
  C180     1.0000 0.05672  0.20934  0.33937  Biso   1.000  C
  H186     1.0000 0.04220  0.22130  0.32070  Biso   1.000  H
  C181     1.0000 0.06748  0.22930  0.37126  Biso   1.000  C
  C182     1.0000 0.08973  0.21174  0.39856  Biso   1.000  C
  H187     1.0000 0.09720  0.22530  0.42000  Biso   1.000  H
  C183     1.0000 0.12497  0.15476  0.42425  Biso   1.000  C
  C184     1.0000 0.05388  0.14984  0.30038  Biso   1.000  C
  C185     1.0000 0.05459  0.26960  0.37614  Biso   1.000  C
  C186     1.0000 0.07400  0.12449  0.18994  Biso   1.000  C
  C187     1.0000 0.10332  0.12710  0.15811  Biso   1.000  C
  C188     1.0000 0.10102  0.15605  0.13190  Biso   1.000  C
  H188     1.0000 0.08110  0.17470  0.13370  Biso   1.000  H
  N33      1.0000 0.14370  0.03190  0.44860  Biso   1.000  N
  C189     1.0000 0.11000  0.01940  0.46650  Biso   1.000  C
  N34      1.0000 0.07130  0.03150  0.26480  Biso   1.000  N
  C190     1.0000 0.09640  0.01910  0.29240  Biso   1.000  C
  C191     1.0000 0.12000  0.03900  0.31860  Biso   1.000  C
  H189     1.0000 0.11990  0.06630  0.31890  Biso   1.000  H
  C192     1.0000 0.14190  0.01950  0.34270  Biso   1.000  C
  H190     1.0000 0.15810  0.03310  0.36010  Biso   1.000  H
  N35      1.0000 0.14860  0.03170  0.44260  Biso   1.000  N
  H191     1.0000 0.21960  0.97430  0.45300  Biso   1.000  H
  H192     1.0000 0.21620  0.01260  0.47560  Biso   1.000  H
  H193     1.0000 0.22290  0.01320  0.43150  Biso   1.000  H
  C193     1.0000 0.11190  0.01940  0.43720  Biso   1.000  C
  C194     1.0000 0.07900  0.03960  0.43230  Biso   1.000  C
  H194     1.0000 0.07940  0.06690  0.43230  Biso   1.000  H
  C195     1.0000 0.04490  0.01980  0.42720  Biso   1.000  C
  H195     1.0000 0.02140  0.03350  0.42480  Biso   1.000  H
  N36      1.0000 0.04680  0.03130  0.27490  Biso   1.000  N
  H196     1.0000 0.09500  0.97430  0.22020  Biso   1.000  H
  H197     1.0000 0.11180  0.01280  0.23500  Biso   1.000  H
  H198     1.0000 0.07840  0.01290  0.20550  Biso   1.000  H
  C196     1.0000 0.02210  0.01940  0.30310  Biso   1.000  C
  C197     1.0000 0.97710  0.01960  0.35370  Biso   1.000  C
  H199     1.0000 0.96140  0.03320  0.37150  Biso   1.000  H
  H200     1.0000 0.20980  0.97430  0.41360  Biso   1.000  H
  H201     1.0000 0.19930  0.01280  0.39380  Biso   1.000  H
  H202     1.0000 0.22020  0.01300  0.43320  Biso   1.000  H
  H203     1.0000 0.02310  0.97430  0.21150  Biso   1.000  H
  H204     1.0000 0.03970  0.01280  0.19650  Biso   1.000  H
  H205     1.0000 0.00660  0.01290  0.22640  Biso   1.000  H
  H206     1.0000 0.02660  0.03320  0.51120  Biso   1.000  H
  C198     1.0000 0.07870  0.04020  0.48300  Biso   1.000  C
  H207     1.0000 0.07860  0.06750  0.48260  Biso   1.000  H
  Zn19     1.0000 0.55076  0.58384  0.75700  Biso   1.000  Zn
  Zn20     1.0000 0.66150  0.58515  0.94964  Biso   1.000  Zn
  O73      1.0000 0.63403  0.67349  0.95310  Biso   1.000  O
  O74      1.0000 0.63391  0.62083  0.91720  Biso   1.000  O
  O75      1.0000 0.53971  0.66713  0.77375  Biso   1.000  O
  O76      1.0000 0.55977  0.61432  0.80176  Biso   1.000  O
  O77      1.0000 0.53938  0.78603  0.84880  Biso   1.000  O
  O78      1.0000 0.55870  0.78416  0.90944  Biso   1.000  O
  O79      1.0000 0.58183  0.59883  0.71493  Biso   1.000  O
  O80      1.0000 0.54635  0.64650  0.69014  Biso   1.000  O
  C199     1.0000 0.60102  0.67407  0.89430  Biso   1.000  C
  C200     1.0000 0.58924  0.65435  0.86300  Biso   1.000  C
  H208     1.0000 0.59600  0.62890  0.86040  Biso   1.000  H
  C201     1.0000 0.56718  0.67170  0.83476  Biso   1.000  C
  C202     1.0000 0.55672  0.70934  0.83937  Biso   1.000  C
  H209     1.0000 0.54220  0.72130  0.82070  Biso   1.000  H
  C203     1.0000 0.56748  0.72930  0.87126  Biso   1.000  C
  C204     1.0000 0.58973  0.71174  0.89856  Biso   1.000  C
  H210     1.0000 0.59720  0.72530  0.92000  Biso   1.000  H
  C205     1.0000 0.62497  0.65476  0.92425  Biso   1.000  C
  C206     1.0000 0.55388  0.64984  0.80038  Biso   1.000  C
  C207     1.0000 0.55459  0.76960  0.87614  Biso   1.000  C
  C208     1.0000 0.57400  0.62449  0.68994  Biso   1.000  C
  C209     1.0000 0.60332  0.62710  0.65811  Biso   1.000  C
  C210     1.0000 0.60102  0.65605  0.63190  Biso   1.000  C
  H211     1.0000 0.58110  0.67470  0.63370  Biso   1.000  H
  N37      1.0000 0.64370  0.53190  0.94860  Biso   1.000  N
  C211     1.0000 0.61000  0.51940  0.96650  Biso   1.000  C
  N38      1.0000 0.57130  0.53150  0.76480  Biso   1.000  N
  C212     1.0000 0.59640  0.51910  0.79240  Biso   1.000  C
  C213     1.0000 0.62000  0.53900  0.81860  Biso   1.000  C
  H212     1.0000 0.61990  0.56630  0.81890  Biso   1.000  H
  C214     1.0000 0.64190  0.51950  0.84270  Biso   1.000  C
  H213     1.0000 0.65810  0.53310  0.86010  Biso   1.000  H
  N39      1.0000 0.64860  0.53170  0.94260  Biso   1.000  N
  H214     1.0000 0.71960  0.47430  0.95300  Biso   1.000  H
  H215     1.0000 0.71620  0.51260  0.97560  Biso   1.000  H
  H216     1.0000 0.72290  0.51320  0.93150  Biso   1.000  H
  C215     1.0000 0.61190  0.51940  0.93720  Biso   1.000  C
  C216     1.0000 0.57900  0.53960  0.93230  Biso   1.000  C
  H217     1.0000 0.57940  0.56690  0.93230  Biso   1.000  H
  C217     1.0000 0.54490  0.51980  0.92720  Biso   1.000  C
  H218     1.0000 0.52140  0.53350  0.92480  Biso   1.000  H
  N40      1.0000 0.54680  0.53130  0.77490  Biso   1.000  N
  H219     1.0000 0.59500  0.47430  0.72020  Biso   1.000  H
  H220     1.0000 0.61180  0.51280  0.73500  Biso   1.000  H
  H221     1.0000 0.57840  0.51290  0.70550  Biso   1.000  H
  C218     1.0000 0.52210  0.51940  0.80310  Biso   1.000  C
  C219     1.0000 0.47710  0.51960  0.85370  Biso   1.000  C
  H222     1.0000 0.46140  0.53320  0.87150  Biso   1.000  H
  H223     1.0000 0.70980  0.47430  0.91360  Biso   1.000  H
  H224     1.0000 0.69930  0.51280  0.89380  Biso   1.000  H
  H225     1.0000 0.72020  0.51300  0.93320  Biso   1.000  H
  H226     1.0000 0.52310  0.47430  0.71150  Biso   1.000  H
  H227     1.0000 0.53970  0.51280  0.69650  Biso   1.000  H
  H228     1.0000 0.50660  0.51290  0.72640  Biso   1.000  H
  H229     1.0000 0.52660  0.53320  0.01120  Biso   1.000  H
  C220     1.0000 0.57870  0.54020  0.98300  Biso   1.000  C
  H230     1.0000 0.57860  0.56750  0.98260  Biso   1.000  H
  Zn21     1.0000 0.05076  0.91616  0.74300  Biso   1.000  Zn
  Zn22     1.0000 0.16150  0.91485  0.55036  Biso   1.000  Zn
  O81      1.0000 0.13403  0.82651  0.54690  Biso   1.000  O
  O82      1.0000 0.13391  0.87917  0.58280  Biso   1.000  O
  O83      1.0000 0.03971  0.83287  0.72625  Biso   1.000  O
  O84      1.0000 0.05977  0.88568  0.69824  Biso   1.000  O
  O85      1.0000 0.03938  0.71397  0.65120  Biso   1.000  O
  O86      1.0000 0.05870  0.71584  0.59056  Biso   1.000  O
  O87      1.0000 0.08183  0.90117  0.78507  Biso   1.000  O
  O88      1.0000 0.04635  0.85350  0.80986  Biso   1.000  O
  C221     1.0000 0.10102  0.82593  0.60570  Biso   1.000  C
  C222     1.0000 0.08924  0.84565  0.63700  Biso   1.000  C
  H231     1.0000 0.09600  0.87110  0.63960  Biso   1.000  H
  C223     1.0000 0.06718  0.82830  0.66524  Biso   1.000  C
  C224     1.0000 0.05672  0.79066  0.66063  Biso   1.000  C
  H232     1.0000 0.04220  0.77870  0.67930  Biso   1.000  H
  C225     1.0000 0.06748  0.77070  0.62874  Biso   1.000  C
  C226     1.0000 0.08973  0.78826  0.60144  Biso   1.000  C
  H233     1.0000 0.09720  0.77470  0.58000  Biso   1.000  H
  C227     1.0000 0.12497  0.84524  0.57575  Biso   1.000  C
  C228     1.0000 0.05388  0.85016  0.69962  Biso   1.000  C
  C229     1.0000 0.05459  0.73040  0.62386  Biso   1.000  C
  C230     1.0000 0.07400  0.87551  0.81006  Biso   1.000  C
  C231     1.0000 0.10332  0.87290  0.84189  Biso   1.000  C
  C232     1.0000 0.10102  0.84395  0.86810  Biso   1.000  C
  H234     1.0000 0.08110  0.82530  0.86630  Biso   1.000  H
  N41      1.0000 0.14370  0.96810  0.55140  Biso   1.000  N
  C233     1.0000 0.11000  0.98060  0.53350  Biso   1.000  C
  N42      1.0000 0.07130  0.96850  0.73520  Biso   1.000  N
  C234     1.0000 0.09640  0.98090  0.70760  Biso   1.000  C
  C235     1.0000 0.12000  0.96100  0.68140  Biso   1.000  C
  H235     1.0000 0.11990  0.93370  0.68110  Biso   1.000  H
  C236     1.0000 0.14190  0.98050  0.65730  Biso   1.000  C
  H236     1.0000 0.15810  0.96690  0.63990  Biso   1.000  H
  N43      1.0000 0.14860  0.96830  0.55740  Biso   1.000  N
  H237     1.0000 0.21960  0.02570  0.54700  Biso   1.000  H
  H238     1.0000 0.21620  0.98740  0.52440  Biso   1.000  H
  H239     1.0000 0.22290  0.98680  0.56850  Biso   1.000  H
  C237     1.0000 0.11190  0.98060  0.56280  Biso   1.000  C
  C238     1.0000 0.07900  0.96040  0.56770  Biso   1.000  C
  H240     1.0000 0.07940  0.93310  0.56770  Biso   1.000  H
  C239     1.0000 0.04490  0.98020  0.57280  Biso   1.000  C
  H241     1.0000 0.02140  0.96650  0.57520  Biso   1.000  H
  N44      1.0000 0.04680  0.96870  0.72510  Biso   1.000  N
  H242     1.0000 0.09500  0.02570  0.77980  Biso   1.000  H
  H243     1.0000 0.11180  0.98720  0.76500  Biso   1.000  H
  H244     1.0000 0.07840  0.98710  0.79450  Biso   1.000  H
  C240     1.0000 0.02210  0.98060  0.69690  Biso   1.000  C
  C241     1.0000 0.97710  0.98040  0.64630  Biso   1.000  C
  H245     1.0000 0.96140  0.96680  0.62850  Biso   1.000  H
  H246     1.0000 0.20980  0.02570  0.58640  Biso   1.000  H
  H247     1.0000 0.19930  0.98720  0.60620  Biso   1.000  H
  H248     1.0000 0.22020  0.98700  0.56680  Biso   1.000  H
  H249     1.0000 0.02310  0.02570  0.78850  Biso   1.000  H
  H250     1.0000 0.03970  0.98720  0.80350  Biso   1.000  H
  H251     1.0000 0.00660  0.98710  0.77360  Biso   1.000  H
  H252     1.0000 0.02660  0.96680  0.48880  Biso   1.000  H
  C242     1.0000 0.07870  0.95980  0.51700  Biso   1.000  C
  H253     1.0000 0.07860  0.93250  0.51740  Biso   1.000  H
  Zn23     1.0000 0.55076  0.41616  0.24300  Biso   1.000  Zn
  Zn24     1.0000 0.66150  0.41485  0.05036  Biso   1.000  Zn
  O89      1.0000 0.63403  0.32651  0.04690  Biso   1.000  O
  O90      1.0000 0.63391  0.37917  0.08280  Biso   1.000  O
  O91      1.0000 0.53971  0.33287  0.22625  Biso   1.000  O
  O92      1.0000 0.55977  0.38568  0.19824  Biso   1.000  O
  O93      1.0000 0.53938  0.21397  0.15120  Biso   1.000  O
  O94      1.0000 0.55870  0.21584  0.09056  Biso   1.000  O
  O95      1.0000 0.58183  0.40117  0.28507  Biso   1.000  O
  O96      1.0000 0.54635  0.35350  0.30986  Biso   1.000  O
  C243     1.0000 0.60102  0.32593  0.10570  Biso   1.000  C
  C244     1.0000 0.58924  0.34565  0.13700  Biso   1.000  C
  H254     1.0000 0.59600  0.37110  0.13960  Biso   1.000  H
  C245     1.0000 0.56718  0.32830  0.16524  Biso   1.000  C
  C246     1.0000 0.55672  0.29066  0.16063  Biso   1.000  C
  H255     1.0000 0.54220  0.27870  0.17930  Biso   1.000  H
  C247     1.0000 0.56748  0.27070  0.12874  Biso   1.000  C
  C248     1.0000 0.58973  0.28826  0.10144  Biso   1.000  C
  H256     1.0000 0.59720  0.27470  0.08000  Biso   1.000  H
  C249     1.0000 0.62497  0.34524  0.07575  Biso   1.000  C
  C250     1.0000 0.55388  0.35016  0.19962  Biso   1.000  C
  C251     1.0000 0.55459  0.23040  0.12386  Biso   1.000  C
  C252     1.0000 0.57400  0.37551  0.31006  Biso   1.000  C
  C253     1.0000 0.60332  0.37290  0.34189  Biso   1.000  C
  C254     1.0000 0.60102  0.34395  0.36810  Biso   1.000  C
  H257     1.0000 0.58110  0.32530  0.36630  Biso   1.000  H
  N45      1.0000 0.64370  0.46810  0.05140  Biso   1.000  N
  C255     1.0000 0.61000  0.48060  0.03350  Biso   1.000  C
  N46      1.0000 0.57130  0.46850  0.23520  Biso   1.000  N
  C256     1.0000 0.59640  0.48090  0.20760  Biso   1.000  C
  C257     1.0000 0.62000  0.46100  0.18140  Biso   1.000  C
  H258     1.0000 0.61990  0.43370  0.18110  Biso   1.000  H
  C258     1.0000 0.64190  0.48050  0.15730  Biso   1.000  C
  H259     1.0000 0.65810  0.46690  0.13990  Biso   1.000  H
  N47      1.0000 0.64860  0.46830  0.05740  Biso   1.000  N
  H260     1.0000 0.71960  0.52570  0.04700  Biso   1.000  H
  H261     1.0000 0.71620  0.48740  0.02440  Biso   1.000  H
  H262     1.0000 0.72290  0.48680  0.06850  Biso   1.000  H
  C259     1.0000 0.61190  0.48060  0.06280  Biso   1.000  C
  C260     1.0000 0.57900  0.46040  0.06770  Biso   1.000  C
  H263     1.0000 0.57940  0.43310  0.06770  Biso   1.000  H
  C261     1.0000 0.54490  0.48020  0.07280  Biso   1.000  C
  H264     1.0000 0.52140  0.46650  0.07520  Biso   1.000  H
  N48      1.0000 0.54680  0.46870  0.22510  Biso   1.000  N
  H265     1.0000 0.59500  0.52570  0.27980  Biso   1.000  H
  H266     1.0000 0.61180  0.48720  0.26500  Biso   1.000  H
  H267     1.0000 0.57840  0.48710  0.29450  Biso   1.000  H
  C262     1.0000 0.52210  0.48060  0.19690  Biso   1.000  C
  C263     1.0000 0.47710  0.48040  0.14630  Biso   1.000  C
  H268     1.0000 0.46140  0.46680  0.12850  Biso   1.000  H
  H269     1.0000 0.70980  0.52570  0.08640  Biso   1.000  H
  H270     1.0000 0.69930  0.48720  0.10620  Biso   1.000  H
  H271     1.0000 0.72020  0.48700  0.06680  Biso   1.000  H
  H272     1.0000 0.52310  0.52570  0.28850  Biso   1.000  H
  H273     1.0000 0.53970  0.48720  0.30350  Biso   1.000  H
  H274     1.0000 0.50660  0.48710  0.27360  Biso   1.000  H
  H275     1.0000 0.52660  0.46680  0.98880  Biso   1.000  H
  C264     1.0000 0.57870  0.45980  0.01700  Biso   1.000  C
  H276     1.0000 0.57860  0.43250  0.01740  Biso   1.000  H
  Zn25     1.0000 0.94924  0.91616  0.25700  Biso   1.000  Zn
  Zn26     1.0000 0.83850  0.91485  0.44964  Biso   1.000  Zn
  O97      1.0000 0.86597  0.82651  0.45310  Biso   1.000  O
  O98      1.0000 0.86609  0.87917  0.41720  Biso   1.000  O
  O99      1.0000 0.96029  0.83287  0.27375  Biso   1.000  O
  O100     1.0000 0.94023  0.88568  0.30176  Biso   1.000  O
  O101     1.0000 0.96062  0.71397  0.34880  Biso   1.000  O
  O102     1.0000 0.94130  0.71584  0.40944  Biso   1.000  O
  O103     1.0000 0.91817  0.90117  0.21493  Biso   1.000  O
  O104     1.0000 0.95365  0.85350  0.19014  Biso   1.000  O
  C265     1.0000 0.89898  0.82593  0.39430  Biso   1.000  C
  C266     1.0000 0.91076  0.84565  0.36300  Biso   1.000  C
  H277     1.0000 0.90400  0.87110  0.36040  Biso   1.000  H
  C267     1.0000 0.93282  0.82830  0.33476  Biso   1.000  C
  C268     1.0000 0.94328  0.79066  0.33937  Biso   1.000  C
  H278     1.0000 0.95780  0.77870  0.32070  Biso   1.000  H
  C269     1.0000 0.93252  0.77070  0.37126  Biso   1.000  C
  C270     1.0000 0.91027  0.78826  0.39856  Biso   1.000  C
  H279     1.0000 0.90280  0.77470  0.42000  Biso   1.000  H
  C271     1.0000 0.87503  0.84524  0.42425  Biso   1.000  C
  C272     1.0000 0.94612  0.85016  0.30038  Biso   1.000  C
  C273     1.0000 0.94541  0.73040  0.37614  Biso   1.000  C
  C274     1.0000 0.92600  0.87551  0.18994  Biso   1.000  C
  C275     1.0000 0.89668  0.87290  0.15811  Biso   1.000  C
  C276     1.0000 0.89898  0.84395  0.13190  Biso   1.000  C
  H280     1.0000 0.91890  0.82530  0.13370  Biso   1.000  H
  N49      1.0000 0.85630  0.96810  0.44860  Biso   1.000  N
  C277     1.0000 0.89000  0.98060  0.46650  Biso   1.000  C
  N50      1.0000 0.92870  0.96850  0.26480  Biso   1.000  N
  C278     1.0000 0.90360  0.98090  0.29240  Biso   1.000  C
  C279     1.0000 0.88000  0.96100  0.31860  Biso   1.000  C
  H281     1.0000 0.88010  0.93370  0.31890  Biso   1.000  H
  C280     1.0000 0.85810  0.98050  0.34270  Biso   1.000  C
  H282     1.0000 0.84190  0.96690  0.36010  Biso   1.000  H
  N51      1.0000 0.85140  0.96830  0.44260  Biso   1.000  N
  H283     1.0000 0.78040  0.02570  0.45300  Biso   1.000  H
  H284     1.0000 0.78380  0.98740  0.47560  Biso   1.000  H
  H285     1.0000 0.77710  0.98680  0.43150  Biso   1.000  H
  C281     1.0000 0.88810  0.98060  0.43720  Biso   1.000  C
  C282     1.0000 0.92100  0.96040  0.43230  Biso   1.000  C
  H286     1.0000 0.92060  0.93310  0.43230  Biso   1.000  H
  C283     1.0000 0.95510  0.98020  0.42720  Biso   1.000  C
  H287     1.0000 0.97860  0.96650  0.42480  Biso   1.000  H
  N52      1.0000 0.95320  0.96870  0.27490  Biso   1.000  N
  H288     1.0000 0.90500  0.02570  0.22020  Biso   1.000  H
  H289     1.0000 0.88820  0.98720  0.23500  Biso   1.000  H
  H290     1.0000 0.92160  0.98710  0.20550  Biso   1.000  H
  C284     1.0000 0.97790  0.98060  0.30310  Biso   1.000  C
  C285     1.0000 0.02290  0.98040  0.35370  Biso   1.000  C
  H291     1.0000 0.03860  0.96680  0.37150  Biso   1.000  H
  H292     1.0000 0.79020  0.02570  0.41360  Biso   1.000  H
  H293     1.0000 0.80070  0.98720  0.39380  Biso   1.000  H
  H294     1.0000 0.77980  0.98700  0.43320  Biso   1.000  H
  H295     1.0000 0.97690  0.02570  0.21150  Biso   1.000  H
  H296     1.0000 0.96030  0.98720  0.19650  Biso   1.000  H
  H297     1.0000 0.99340  0.98710  0.22640  Biso   1.000  H
  H298     1.0000 0.97340  0.96680  0.51120  Biso   1.000  H
  C286     1.0000 0.92130  0.95980  0.48300  Biso   1.000  C
  H299     1.0000 0.92140  0.93250  0.48260  Biso   1.000  H
  Zn27     1.0000 0.44924  0.41616  0.75700  Biso   1.000  Zn
  Zn28     1.0000 0.33850  0.41485  0.94964  Biso   1.000  Zn
  O105     1.0000 0.36597  0.32651  0.95310  Biso   1.000  O
  O106     1.0000 0.36609  0.37917  0.91720  Biso   1.000  O
  O107     1.0000 0.46029  0.33287  0.77375  Biso   1.000  O
  O108     1.0000 0.44023  0.38568  0.80176  Biso   1.000  O
  O109     1.0000 0.46062  0.21397  0.84880  Biso   1.000  O
  O110     1.0000 0.44130  0.21584  0.90944  Biso   1.000  O
  O111     1.0000 0.41817  0.40117  0.71493  Biso   1.000  O
  O112     1.0000 0.45365  0.35350  0.69014  Biso   1.000  O
  C287     1.0000 0.39898  0.32593  0.89430  Biso   1.000  C
  C288     1.0000 0.41076  0.34565  0.86300  Biso   1.000  C
  H300     1.0000 0.40400  0.37110  0.86040  Biso   1.000  H
  C289     1.0000 0.43282  0.32830  0.83476  Biso   1.000  C
  C290     1.0000 0.44328  0.29066  0.83937  Biso   1.000  C
  H301     1.0000 0.45780  0.27870  0.82070  Biso   1.000  H
  C291     1.0000 0.43252  0.27070  0.87126  Biso   1.000  C
  C292     1.0000 0.41027  0.28826  0.89856  Biso   1.000  C
  H302     1.0000 0.40280  0.27470  0.92000  Biso   1.000  H
  C293     1.0000 0.37503  0.34524  0.92425  Biso   1.000  C
  C294     1.0000 0.44612  0.35016  0.80038  Biso   1.000  C
  C295     1.0000 0.44541  0.23040  0.87614  Biso   1.000  C
  C296     1.0000 0.42600  0.37551  0.68994  Biso   1.000  C
  C297     1.0000 0.39668  0.37290  0.65811  Biso   1.000  C
  C298     1.0000 0.39898  0.34395  0.63190  Biso   1.000  C
  H303     1.0000 0.41890  0.32530  0.63370  Biso   1.000  H
  N53      1.0000 0.35630  0.46810  0.94860  Biso   1.000  N
  C299     1.0000 0.39000  0.48060  0.96650  Biso   1.000  C
  N54      1.0000 0.42870  0.46850  0.76480  Biso   1.000  N
  C300     1.0000 0.40360  0.48090  0.79240  Biso   1.000  C
  C301     1.0000 0.38000  0.46100  0.81860  Biso   1.000  C
  H304     1.0000 0.38010  0.43370  0.81890  Biso   1.000  H
  C302     1.0000 0.35810  0.48050  0.84270  Biso   1.000  C
  H305     1.0000 0.34190  0.46690  0.86010  Biso   1.000  H
  N55      1.0000 0.35140  0.46830  0.94260  Biso   1.000  N
  H306     1.0000 0.28040  0.52570  0.95300  Biso   1.000  H
  H307     1.0000 0.28380  0.48740  0.97560  Biso   1.000  H
  H308     1.0000 0.27710  0.48680  0.93150  Biso   1.000  H
  C303     1.0000 0.38810  0.48060  0.93720  Biso   1.000  C
  C304     1.0000 0.42100  0.46040  0.93230  Biso   1.000  C
  H309     1.0000 0.42060  0.43310  0.93230  Biso   1.000  H
  C305     1.0000 0.45510  0.48020  0.92720  Biso   1.000  C
  H310     1.0000 0.47860  0.46650  0.92480  Biso   1.000  H
  N56      1.0000 0.45320  0.46870  0.77490  Biso   1.000  N
  H311     1.0000 0.40500  0.52570  0.72020  Biso   1.000  H
  H312     1.0000 0.38820  0.48720  0.73500  Biso   1.000  H
  H313     1.0000 0.42160  0.48710  0.70550  Biso   1.000  H
  C306     1.0000 0.47790  0.48060  0.80310  Biso   1.000  C
  C307     1.0000 0.52290  0.48040  0.85370  Biso   1.000  C
  H314     1.0000 0.53860  0.46680  0.87150  Biso   1.000  H
  H315     1.0000 0.29020  0.52570  0.91360  Biso   1.000  H
  H316     1.0000 0.30070  0.48720  0.89380  Biso   1.000  H
  H317     1.0000 0.27980  0.48700  0.93320  Biso   1.000  H
  H318     1.0000 0.47690  0.52570  0.71150  Biso   1.000  H
  H319     1.0000 0.46030  0.48720  0.69650  Biso   1.000  H
  H320     1.0000 0.49340  0.48710  0.72640  Biso   1.000  H
  H321     1.0000 0.47340  0.46680  0.01120  Biso   1.000  H
  C308     1.0000 0.42130  0.45980  0.98300  Biso   1.000  C
  H322     1.0000 0.42140  0.43250  0.98260  Biso   1.000  H
  Zn29     1.0000 0.94924  0.08384  0.74300  Biso   1.000  Zn
  Zn30     1.0000 0.83850  0.08515  0.55036  Biso   1.000  Zn
  O113     1.0000 0.86597  0.17349  0.54690  Biso   1.000  O
  O114     1.0000 0.86609  0.12083  0.58280  Biso   1.000  O
  O115     1.0000 0.96029  0.16713  0.72625  Biso   1.000  O
  O116     1.0000 0.94023  0.11432  0.69824  Biso   1.000  O
  O117     1.0000 0.96062  0.28603  0.65120  Biso   1.000  O
  O118     1.0000 0.94130  0.28416  0.59056  Biso   1.000  O
  O119     1.0000 0.91817  0.09883  0.78507  Biso   1.000  O
  O120     1.0000 0.95365  0.14650  0.80986  Biso   1.000  O
  C309     1.0000 0.89898  0.17407  0.60570  Biso   1.000  C
  C310     1.0000 0.91076  0.15435  0.63700  Biso   1.000  C
  H323     1.0000 0.90400  0.12890  0.63960  Biso   1.000  H
  C311     1.0000 0.93282  0.17170  0.66524  Biso   1.000  C
  C312     1.0000 0.94328  0.20934  0.66063  Biso   1.000  C
  H324     1.0000 0.95780  0.22130  0.67930  Biso   1.000  H
  C313     1.0000 0.93252  0.22930  0.62874  Biso   1.000  C
  C314     1.0000 0.91027  0.21174  0.60144  Biso   1.000  C
  H325     1.0000 0.90280  0.22530  0.58000  Biso   1.000  H
  C315     1.0000 0.87503  0.15476  0.57575  Biso   1.000  C
  C316     1.0000 0.94612  0.14984  0.69962  Biso   1.000  C
  C317     1.0000 0.94541  0.26960  0.62386  Biso   1.000  C
  C318     1.0000 0.92600  0.12449  0.81006  Biso   1.000  C
  C319     1.0000 0.89668  0.12710  0.84189  Biso   1.000  C
  C320     1.0000 0.89898  0.15605  0.86810  Biso   1.000  C
  H326     1.0000 0.91890  0.17470  0.86630  Biso   1.000  H
  N57      1.0000 0.85630  0.03190  0.55140  Biso   1.000  N
  C321     1.0000 0.89000  0.01940  0.53350  Biso   1.000  C
  N58      1.0000 0.92870  0.03150  0.73520  Biso   1.000  N
  C322     1.0000 0.90360  0.01910  0.70760  Biso   1.000  C
  C323     1.0000 0.88000  0.03900  0.68140  Biso   1.000  C
  H327     1.0000 0.88010  0.06630  0.68110  Biso   1.000  H
  C324     1.0000 0.85810  0.01950  0.65730  Biso   1.000  C
  H328     1.0000 0.84190  0.03310  0.63990  Biso   1.000  H
  N59      1.0000 0.85140  0.03170  0.55740  Biso   1.000  N
  H329     1.0000 0.78040  0.97430  0.54700  Biso   1.000  H
  H330     1.0000 0.78380  0.01260  0.52440  Biso   1.000  H
  H331     1.0000 0.77710  0.01320  0.56850  Biso   1.000  H
  C325     1.0000 0.88810  0.01940  0.56280  Biso   1.000  C
  C326     1.0000 0.92100  0.03960  0.56770  Biso   1.000  C
  H332     1.0000 0.92060  0.06690  0.56770  Biso   1.000  H
  C327     1.0000 0.95510  0.01980  0.57280  Biso   1.000  C
  H333     1.0000 0.97860  0.03350  0.57520  Biso   1.000  H
  N60      1.0000 0.95320  0.03130  0.72510  Biso   1.000  N
  H334     1.0000 0.90500  0.97430  0.77980  Biso   1.000  H
  H335     1.0000 0.88820  0.01280  0.76500  Biso   1.000  H
  H336     1.0000 0.92160  0.01290  0.79450  Biso   1.000  H
  C328     1.0000 0.97790  0.01940  0.69690  Biso   1.000  C
  C329     1.0000 0.02290  0.01960  0.64630  Biso   1.000  C
  H337     1.0000 0.03860  0.03320  0.62850  Biso   1.000  H
  H338     1.0000 0.79020  0.97430  0.58640  Biso   1.000  H
  H339     1.0000 0.80070  0.01280  0.60620  Biso   1.000  H
  H340     1.0000 0.77980  0.01300  0.56680  Biso   1.000  H
  H341     1.0000 0.97690  0.97430  0.78850  Biso   1.000  H
  H342     1.0000 0.96030  0.01280  0.80350  Biso   1.000  H
  H343     1.0000 0.99340  0.01290  0.77360  Biso   1.000  H
  H344     1.0000 0.97340  0.03320  0.48880  Biso   1.000  H
  C330     1.0000 0.92130  0.04020  0.51700  Biso   1.000  C
  H345     1.0000 0.92140  0.06750  0.51740  Biso   1.000  H
  Zn31     1.0000 0.44924  0.58384  0.24300  Biso   1.000  Zn
  Zn32     1.0000 0.33850  0.58515  0.05036  Biso   1.000  Zn
  O121     1.0000 0.36597  0.67349  0.04690  Biso   1.000  O
  O122     1.0000 0.36609  0.62083  0.08280  Biso   1.000  O
  O123     1.0000 0.46029  0.66713  0.22625  Biso   1.000  O
  O124     1.0000 0.44023  0.61432  0.19824  Biso   1.000  O
  O125     1.0000 0.46062  0.78603  0.15120  Biso   1.000  O
  O126     1.0000 0.44130  0.78416  0.09056  Biso   1.000  O
  O127     1.0000 0.41817  0.59883  0.28507  Biso   1.000  O
  O128     1.0000 0.45365  0.64650  0.30986  Biso   1.000  O
  C331     1.0000 0.39898  0.67407  0.10570  Biso   1.000  C
  C332     1.0000 0.41076  0.65435  0.13700  Biso   1.000  C
  H346     1.0000 0.40400  0.62890  0.13960  Biso   1.000  H
  C333     1.0000 0.43282  0.67170  0.16524  Biso   1.000  C
  C334     1.0000 0.44328  0.70934  0.16063  Biso   1.000  C
  H347     1.0000 0.45780  0.72130  0.17930  Biso   1.000  H
  C335     1.0000 0.43252  0.72930  0.12874  Biso   1.000  C
  C336     1.0000 0.41027  0.71174  0.10144  Biso   1.000  C
  H348     1.0000 0.40280  0.72530  0.08000  Biso   1.000  H
  C337     1.0000 0.37503  0.65476  0.07575  Biso   1.000  C
  C338     1.0000 0.44612  0.64984  0.19962  Biso   1.000  C
  C339     1.0000 0.44541  0.76960  0.12386  Biso   1.000  C
  C340     1.0000 0.42600  0.62449  0.31006  Biso   1.000  C
  C341     1.0000 0.39668  0.62710  0.34189  Biso   1.000  C
  C342     1.0000 0.39898  0.65605  0.36810  Biso   1.000  C
  H349     1.0000 0.41890  0.67470  0.36630  Biso   1.000  H
  N61      1.0000 0.35630  0.53190  0.05140  Biso   1.000  N
  C343     1.0000 0.39000  0.51940  0.03350  Biso   1.000  C
  N62      1.0000 0.42870  0.53150  0.23520  Biso   1.000  N
  C344     1.0000 0.40360  0.51910  0.20760  Biso   1.000  C
  C345     1.0000 0.38000  0.53900  0.18140  Biso   1.000  C
  H350     1.0000 0.38010  0.56630  0.18110  Biso   1.000  H
  C346     1.0000 0.35810  0.51950  0.15730  Biso   1.000  C
  H351     1.0000 0.34190  0.53310  0.13990  Biso   1.000  H
  N63      1.0000 0.35140  0.53170  0.05740  Biso   1.000  N
  H352     1.0000 0.28040  0.47430  0.04700  Biso   1.000  H
  H353     1.0000 0.28380  0.51260  0.02440  Biso   1.000  H
  H354     1.0000 0.27710  0.51320  0.06850  Biso   1.000  H
  C347     1.0000 0.38810  0.51940  0.06280  Biso   1.000  C
  C348     1.0000 0.42100  0.53960  0.06770  Biso   1.000  C
  H355     1.0000 0.42060  0.56690  0.06770  Biso   1.000  H
  C349     1.0000 0.45510  0.51980  0.07280  Biso   1.000  C
  H356     1.0000 0.47860  0.53350  0.07520  Biso   1.000  H
  N64      1.0000 0.45320  0.53130  0.22510  Biso   1.000  N
  H357     1.0000 0.40500  0.47430  0.27980  Biso   1.000  H
  H358     1.0000 0.38820  0.51280  0.26500  Biso   1.000  H
  H359     1.0000 0.42160  0.51290  0.29450  Biso   1.000  H
  C350     1.0000 0.47790  0.51940  0.19690  Biso   1.000  C
  C351     1.0000 0.52290  0.51960  0.14630  Biso   1.000  C
  H360     1.0000 0.53860  0.53320  0.12850  Biso   1.000  H
  H361     1.0000 0.29020  0.47430  0.08640  Biso   1.000  H
  H362     1.0000 0.30070  0.51280  0.10620  Biso   1.000  H
  H363     1.0000 0.27980  0.51300  0.06680  Biso   1.000  H
  H364     1.0000 0.47690  0.47430  0.28850  Biso   1.000  H
  H365     1.0000 0.46030  0.51280  0.30350  Biso   1.000  H
  H366     1.0000 0.49340  0.51290  0.27360  Biso   1.000  H
  H367     1.0000 0.47340  0.53320  0.98880  Biso   1.000  H
  C352     1.0000 0.42130  0.54020  0.01700  Biso   1.000  C
  H368     1.0000 0.42140  0.56750  0.01740  Biso   1.000  H
  Zn33     1.0000 0.25700  0.05076  0.08384  Biso   1.000  Zn
  Zn34     1.0000 0.44964  0.16150  0.08515  Biso   1.000  Zn
  O129     1.0000 0.45310  0.13403  0.17349  Biso   1.000  O
  O130     1.0000 0.41720  0.13391  0.12083  Biso   1.000  O
  O131     1.0000 0.27375  0.03971  0.16713  Biso   1.000  O
  O132     1.0000 0.30176  0.05977  0.11432  Biso   1.000  O
  O133     1.0000 0.34880  0.03938  0.28603  Biso   1.000  O
  O134     1.0000 0.40944  0.05870  0.28416  Biso   1.000  O
  O135     1.0000 0.21493  0.08183  0.09883  Biso   1.000  O
  O136     1.0000 0.19014  0.04635  0.14650  Biso   1.000  O
  C353     1.0000 0.39430  0.10102  0.17407  Biso   1.000  C
  C354     1.0000 0.36300  0.08924  0.15435  Biso   1.000  C
  H369     1.0000 0.36040  0.09600  0.12890  Biso   1.000  H
  C355     1.0000 0.33476  0.06718  0.17170  Biso   1.000  C
  C356     1.0000 0.33937  0.05672  0.20934  Biso   1.000  C
  H370     1.0000 0.32070  0.04220  0.22130  Biso   1.000  H
  C357     1.0000 0.37126  0.06748  0.22930  Biso   1.000  C
  C358     1.0000 0.39856  0.08973  0.21174  Biso   1.000  C
  H371     1.0000 0.42000  0.09720  0.22530  Biso   1.000  H
  C359     1.0000 0.42425  0.12497  0.15476  Biso   1.000  C
  C360     1.0000 0.30038  0.05388  0.14984  Biso   1.000  C
  C361     1.0000 0.37614  0.05459  0.26960  Biso   1.000  C
  C362     1.0000 0.18994  0.07400  0.12449  Biso   1.000  C
  C363     1.0000 0.15811  0.10332  0.12710  Biso   1.000  C
  C364     1.0000 0.13190  0.10102  0.15605  Biso   1.000  C
  H372     1.0000 0.13370  0.08110  0.17470  Biso   1.000  H
  N65      1.0000 0.44860  0.14370  0.03190  Biso   1.000  N
  C365     1.0000 0.46650  0.11000  0.01940  Biso   1.000  C
  N66      1.0000 0.26480  0.07130  0.03150  Biso   1.000  N
  C366     1.0000 0.29240  0.09640  0.01910  Biso   1.000  C
  C367     1.0000 0.31860  0.12000  0.03900  Biso   1.000  C
  H373     1.0000 0.31890  0.11990  0.06630  Biso   1.000  H
  C368     1.0000 0.34270  0.14190  0.01950  Biso   1.000  C
  H374     1.0000 0.36010  0.15810  0.03310  Biso   1.000  H
  N67      1.0000 0.44260  0.14860  0.03170  Biso   1.000  N
  H375     1.0000 0.45300  0.21960  0.97430  Biso   1.000  H
  H376     1.0000 0.47560  0.21620  0.01260  Biso   1.000  H
  H377     1.0000 0.43150  0.22290  0.01320  Biso   1.000  H
  C369     1.0000 0.43720  0.11190  0.01940  Biso   1.000  C
  C370     1.0000 0.43230  0.07900  0.03960  Biso   1.000  C
  H378     1.0000 0.43230  0.07940  0.06690  Biso   1.000  H
  C371     1.0000 0.42720  0.04490  0.01980  Biso   1.000  C
  H379     1.0000 0.42480  0.02140  0.03350  Biso   1.000  H
  N68      1.0000 0.27490  0.04680  0.03130  Biso   1.000  N
  H380     1.0000 0.22020  0.09500  0.97430  Biso   1.000  H
  H381     1.0000 0.23500  0.11180  0.01280  Biso   1.000  H
  H382     1.0000 0.20550  0.07840  0.01290  Biso   1.000  H
  C372     1.0000 0.30310  0.02210  0.01940  Biso   1.000  C
  C373     1.0000 0.35370  0.97710  0.01960  Biso   1.000  C
  H383     1.0000 0.37150  0.96140  0.03320  Biso   1.000  H
  H384     1.0000 0.41360  0.20980  0.97430  Biso   1.000  H
  H385     1.0000 0.39380  0.19930  0.01280  Biso   1.000  H
  H386     1.0000 0.43320  0.22020  0.01300  Biso   1.000  H
  H387     1.0000 0.21150  0.02310  0.97430  Biso   1.000  H
  H388     1.0000 0.19650  0.03970  0.01280  Biso   1.000  H
  H389     1.0000 0.22640  0.00660  0.01290  Biso   1.000  H
  H390     1.0000 0.51120  0.02660  0.03320  Biso   1.000  H
  C374     1.0000 0.48300  0.07870  0.04020  Biso   1.000  C
  H391     1.0000 0.48260  0.07860  0.06750  Biso   1.000  H
  Zn35     1.0000 0.75700  0.55076  0.58384  Biso   1.000  Zn
  Zn36     1.0000 0.94964  0.66150  0.58515  Biso   1.000  Zn
  O137     1.0000 0.95310  0.63403  0.67349  Biso   1.000  O
  O138     1.0000 0.91720  0.63391  0.62083  Biso   1.000  O
  O139     1.0000 0.77375  0.53971  0.66713  Biso   1.000  O
  O140     1.0000 0.80176  0.55977  0.61432  Biso   1.000  O
  O141     1.0000 0.84880  0.53938  0.78603  Biso   1.000  O
  O142     1.0000 0.90944  0.55870  0.78416  Biso   1.000  O
  O143     1.0000 0.71493  0.58183  0.59883  Biso   1.000  O
  O144     1.0000 0.69014  0.54635  0.64650  Biso   1.000  O
  C375     1.0000 0.89430  0.60102  0.67407  Biso   1.000  C
  C376     1.0000 0.86300  0.58924  0.65435  Biso   1.000  C
  H392     1.0000 0.86040  0.59600  0.62890  Biso   1.000  H
  C377     1.0000 0.83476  0.56718  0.67170  Biso   1.000  C
  C378     1.0000 0.83937  0.55672  0.70934  Biso   1.000  C
  H393     1.0000 0.82070  0.54220  0.72130  Biso   1.000  H
  C379     1.0000 0.87126  0.56748  0.72930  Biso   1.000  C
  C380     1.0000 0.89856  0.58973  0.71174  Biso   1.000  C
  H394     1.0000 0.92000  0.59720  0.72530  Biso   1.000  H
  C381     1.0000 0.92425  0.62497  0.65476  Biso   1.000  C
  C382     1.0000 0.80038  0.55388  0.64984  Biso   1.000  C
  C383     1.0000 0.87614  0.55459  0.76960  Biso   1.000  C
  C384     1.0000 0.68994  0.57400  0.62449  Biso   1.000  C
  C385     1.0000 0.65811  0.60332  0.62710  Biso   1.000  C
  C386     1.0000 0.63190  0.60102  0.65605  Biso   1.000  C
  H395     1.0000 0.63370  0.58110  0.67470  Biso   1.000  H
  N69      1.0000 0.94860  0.64370  0.53190  Biso   1.000  N
  C387     1.0000 0.96650  0.61000  0.51940  Biso   1.000  C
  N70      1.0000 0.76480  0.57130  0.53150  Biso   1.000  N
  C388     1.0000 0.79240  0.59640  0.51910  Biso   1.000  C
  C389     1.0000 0.81860  0.62000  0.53900  Biso   1.000  C
  H396     1.0000 0.81890  0.61990  0.56630  Biso   1.000  H
  C390     1.0000 0.84270  0.64190  0.51950  Biso   1.000  C
  H397     1.0000 0.86010  0.65810  0.53310  Biso   1.000  H
  N71      1.0000 0.94260  0.64860  0.53170  Biso   1.000  N
  H398     1.0000 0.95300  0.71960  0.47430  Biso   1.000  H
  H399     1.0000 0.97560  0.71620  0.51260  Biso   1.000  H
  H400     1.0000 0.93150  0.72290  0.51320  Biso   1.000  H
  C391     1.0000 0.93720  0.61190  0.51940  Biso   1.000  C
  C392     1.0000 0.93230  0.57900  0.53960  Biso   1.000  C
  H401     1.0000 0.93230  0.57940  0.56690  Biso   1.000  H
  C393     1.0000 0.92720  0.54490  0.51980  Biso   1.000  C
  H402     1.0000 0.92480  0.52140  0.53350  Biso   1.000  H
  N72      1.0000 0.77490  0.54680  0.53130  Biso   1.000  N
  H403     1.0000 0.72020  0.59500  0.47430  Biso   1.000  H
  H404     1.0000 0.73500  0.61180  0.51280  Biso   1.000  H
  H405     1.0000 0.70550  0.57840  0.51290  Biso   1.000  H
  C394     1.0000 0.80310  0.52210  0.51940  Biso   1.000  C
  C395     1.0000 0.85370  0.47710  0.51960  Biso   1.000  C
  H406     1.0000 0.87150  0.46140  0.53320  Biso   1.000  H
  H407     1.0000 0.91360  0.70980  0.47430  Biso   1.000  H
  H408     1.0000 0.89380  0.69930  0.51280  Biso   1.000  H
  H409     1.0000 0.93320  0.72020  0.51300  Biso   1.000  H
  H410     1.0000 0.71150  0.52310  0.47430  Biso   1.000  H
  H411     1.0000 0.69650  0.53970  0.51280  Biso   1.000  H
  H412     1.0000 0.72640  0.50660  0.51290  Biso   1.000  H
  H413     1.0000 0.01120  0.52660  0.53320  Biso   1.000  H
  C396     1.0000 0.98300  0.57870  0.54020  Biso   1.000  C
  H414     1.0000 0.98260  0.57860  0.56750  Biso   1.000  H
  Zn37     1.0000 0.74300  0.05076  0.91616  Biso   1.000  Zn
  Zn38     1.0000 0.55036  0.16150  0.91485  Biso   1.000  Zn
  O145     1.0000 0.54690  0.13403  0.82651  Biso   1.000  O
  O146     1.0000 0.58280  0.13391  0.87917  Biso   1.000  O
  O147     1.0000 0.72625  0.03971  0.83287  Biso   1.000  O
  O148     1.0000 0.69824  0.05977  0.88568  Biso   1.000  O
  O149     1.0000 0.65120  0.03938  0.71397  Biso   1.000  O
  O150     1.0000 0.59056  0.05870  0.71584  Biso   1.000  O
  O151     1.0000 0.78507  0.08183  0.90117  Biso   1.000  O
  O152     1.0000 0.80986  0.04635  0.85350  Biso   1.000  O
  C397     1.0000 0.60570  0.10102  0.82593  Biso   1.000  C
  C398     1.0000 0.63700  0.08924  0.84565  Biso   1.000  C
  H415     1.0000 0.63960  0.09600  0.87110  Biso   1.000  H
  C399     1.0000 0.66524  0.06718  0.82830  Biso   1.000  C
  C400     1.0000 0.66063  0.05672  0.79066  Biso   1.000  C
  H416     1.0000 0.67930  0.04220  0.77870  Biso   1.000  H
  C401     1.0000 0.62874  0.06748  0.77070  Biso   1.000  C
  C402     1.0000 0.60144  0.08973  0.78826  Biso   1.000  C
  H417     1.0000 0.58000  0.09720  0.77470  Biso   1.000  H
  C403     1.0000 0.57575  0.12497  0.84524  Biso   1.000  C
  C404     1.0000 0.69962  0.05388  0.85016  Biso   1.000  C
  C405     1.0000 0.62386  0.05459  0.73040  Biso   1.000  C
  C406     1.0000 0.81006  0.07400  0.87551  Biso   1.000  C
  C407     1.0000 0.84189  0.10332  0.87290  Biso   1.000  C
  C408     1.0000 0.86810  0.10102  0.84395  Biso   1.000  C
  H418     1.0000 0.86630  0.08110  0.82530  Biso   1.000  H
  N73      1.0000 0.55140  0.14370  0.96810  Biso   1.000  N
  C409     1.0000 0.53350  0.11000  0.98060  Biso   1.000  C
  N74      1.0000 0.73520  0.07130  0.96850  Biso   1.000  N
  C410     1.0000 0.70760  0.09640  0.98090  Biso   1.000  C
  C411     1.0000 0.68140  0.12000  0.96100  Biso   1.000  C
  H419     1.0000 0.68110  0.11990  0.93370  Biso   1.000  H
  C412     1.0000 0.65730  0.14190  0.98050  Biso   1.000  C
  H420     1.0000 0.63990  0.15810  0.96690  Biso   1.000  H
  N75      1.0000 0.55740  0.14860  0.96830  Biso   1.000  N
  H421     1.0000 0.54700  0.21960  0.02570  Biso   1.000  H
  H422     1.0000 0.52440  0.21620  0.98740  Biso   1.000  H
  H423     1.0000 0.56850  0.22290  0.98680  Biso   1.000  H
  C413     1.0000 0.56280  0.11190  0.98060  Biso   1.000  C
  C414     1.0000 0.56770  0.07900  0.96040  Biso   1.000  C
  H424     1.0000 0.56770  0.07940  0.93310  Biso   1.000  H
  C415     1.0000 0.57280  0.04490  0.98020  Biso   1.000  C
  H425     1.0000 0.57520  0.02140  0.96650  Biso   1.000  H
  N76      1.0000 0.72510  0.04680  0.96870  Biso   1.000  N
  H426     1.0000 0.77980  0.09500  0.02570  Biso   1.000  H
  H427     1.0000 0.76500  0.11180  0.98720  Biso   1.000  H
  H428     1.0000 0.79450  0.07840  0.98710  Biso   1.000  H
  C416     1.0000 0.69690  0.02210  0.98060  Biso   1.000  C
  C417     1.0000 0.64630  0.97710  0.98040  Biso   1.000  C
  H429     1.0000 0.62850  0.96140  0.96680  Biso   1.000  H
  H430     1.0000 0.58640  0.20980  0.02570  Biso   1.000  H
  H431     1.0000 0.60620  0.19930  0.98720  Biso   1.000  H
  H432     1.0000 0.56680  0.22020  0.98700  Biso   1.000  H
  H433     1.0000 0.78850  0.02310  0.02570  Biso   1.000  H
  H434     1.0000 0.80350  0.03970  0.98720  Biso   1.000  H
  H435     1.0000 0.77360  0.00660  0.98710  Biso   1.000  H
  H436     1.0000 0.48880  0.02660  0.96680  Biso   1.000  H
  C418     1.0000 0.51700  0.07870  0.95980  Biso   1.000  C
  H437     1.0000 0.51740  0.07860  0.93250  Biso   1.000  H
  Zn39     1.0000 0.24300  0.55076  0.41616  Biso   1.000  Zn
  Zn40     1.0000 0.05036  0.66150  0.41485  Biso   1.000  Zn
  O153     1.0000 0.04690  0.63403  0.32651  Biso   1.000  O
  O154     1.0000 0.08280  0.63391  0.37917  Biso   1.000  O
  O155     1.0000 0.22625  0.53971  0.33287  Biso   1.000  O
  O156     1.0000 0.19824  0.55977  0.38568  Biso   1.000  O
  O157     1.0000 0.15120  0.53938  0.21397  Biso   1.000  O
  O158     1.0000 0.09056  0.55870  0.21584  Biso   1.000  O
  O159     1.0000 0.28507  0.58183  0.40117  Biso   1.000  O
  O160     1.0000 0.30986  0.54635  0.35350  Biso   1.000  O
  C419     1.0000 0.10570  0.60102  0.32593  Biso   1.000  C
  C420     1.0000 0.13700  0.58924  0.34565  Biso   1.000  C
  H438     1.0000 0.13960  0.59600  0.37110  Biso   1.000  H
  C421     1.0000 0.16524  0.56718  0.32830  Biso   1.000  C
  C422     1.0000 0.16063  0.55672  0.29066  Biso   1.000  C
  H439     1.0000 0.17930  0.54220  0.27870  Biso   1.000  H
  C423     1.0000 0.12874  0.56748  0.27070  Biso   1.000  C
  C424     1.0000 0.10144  0.58973  0.28826  Biso   1.000  C
  H440     1.0000 0.08000  0.59720  0.27470  Biso   1.000  H
  C425     1.0000 0.07575  0.62497  0.34524  Biso   1.000  C
  C426     1.0000 0.19962  0.55388  0.35016  Biso   1.000  C
  C427     1.0000 0.12386  0.55459  0.23040  Biso   1.000  C
  C428     1.0000 0.31006  0.57400  0.37551  Biso   1.000  C
  C429     1.0000 0.34189  0.60332  0.37290  Biso   1.000  C
  C430     1.0000 0.36810  0.60102  0.34395  Biso   1.000  C
  H441     1.0000 0.36630  0.58110  0.32530  Biso   1.000  H
  N77      1.0000 0.05140  0.64370  0.46810  Biso   1.000  N
  C431     1.0000 0.03350  0.61000  0.48060  Biso   1.000  C
  N78      1.0000 0.23520  0.57130  0.46850  Biso   1.000  N
  C432     1.0000 0.20760  0.59640  0.48090  Biso   1.000  C
  C433     1.0000 0.18140  0.62000  0.46100  Biso   1.000  C
  H442     1.0000 0.18110  0.61990  0.43370  Biso   1.000  H
  C434     1.0000 0.15730  0.64190  0.48050  Biso   1.000  C
  H443     1.0000 0.13990  0.65810  0.46690  Biso   1.000  H
  N79      1.0000 0.05740  0.64860  0.46830  Biso   1.000  N
  H444     1.0000 0.04700  0.71960  0.52570  Biso   1.000  H
  H445     1.0000 0.02440  0.71620  0.48740  Biso   1.000  H
  H446     1.0000 0.06850  0.72290  0.48680  Biso   1.000  H
  C435     1.0000 0.06280  0.61190  0.48060  Biso   1.000  C
  C436     1.0000 0.06770  0.57900  0.46040  Biso   1.000  C
  H447     1.0000 0.06770  0.57940  0.43310  Biso   1.000  H
  C437     1.0000 0.07280  0.54490  0.48020  Biso   1.000  C
  H448     1.0000 0.07520  0.52140  0.46650  Biso   1.000  H
  N80      1.0000 0.22510  0.54680  0.46870  Biso   1.000  N
  H449     1.0000 0.27980  0.59500  0.52570  Biso   1.000  H
  H450     1.0000 0.26500  0.61180  0.48720  Biso   1.000  H
  H451     1.0000 0.29450  0.57840  0.48710  Biso   1.000  H
  C438     1.0000 0.19690  0.52210  0.48060  Biso   1.000  C
  C439     1.0000 0.14630  0.47710  0.48040  Biso   1.000  C
  H452     1.0000 0.12850  0.46140  0.46680  Biso   1.000  H
  H453     1.0000 0.08640  0.70980  0.52570  Biso   1.000  H
  H454     1.0000 0.10620  0.69930  0.48720  Biso   1.000  H
  H455     1.0000 0.06680  0.72020  0.48700  Biso   1.000  H
  H456     1.0000 0.28850  0.52310  0.52570  Biso   1.000  H
  H457     1.0000 0.30350  0.53970  0.48720  Biso   1.000  H
  H458     1.0000 0.27360  0.50660  0.48710  Biso   1.000  H
  H459     1.0000 0.98880  0.52660  0.46680  Biso   1.000  H
  C440     1.0000 0.01700  0.57870  0.45980  Biso   1.000  C
  H460     1.0000 0.01740  0.57860  0.43250  Biso   1.000  H
  Zn41     1.0000 0.25700  0.94924  0.91616  Biso   1.000  Zn
  Zn42     1.0000 0.44964  0.83850  0.91485  Biso   1.000  Zn
  O161     1.0000 0.45310  0.86597  0.82651  Biso   1.000  O
  O162     1.0000 0.41720  0.86609  0.87917  Biso   1.000  O
  O163     1.0000 0.27375  0.96029  0.83287  Biso   1.000  O
  O164     1.0000 0.30176  0.94023  0.88568  Biso   1.000  O
  O165     1.0000 0.34880  0.96062  0.71397  Biso   1.000  O
  O166     1.0000 0.40944  0.94130  0.71584  Biso   1.000  O
  O167     1.0000 0.21493  0.91817  0.90117  Biso   1.000  O
  O168     1.0000 0.19014  0.95365  0.85350  Biso   1.000  O
  C441     1.0000 0.39430  0.89898  0.82593  Biso   1.000  C
  C442     1.0000 0.36300  0.91076  0.84565  Biso   1.000  C
  H461     1.0000 0.36040  0.90400  0.87110  Biso   1.000  H
  C443     1.0000 0.33476  0.93282  0.82830  Biso   1.000  C
  C444     1.0000 0.33937  0.94328  0.79066  Biso   1.000  C
  H462     1.0000 0.32070  0.95780  0.77870  Biso   1.000  H
  C445     1.0000 0.37126  0.93252  0.77070  Biso   1.000  C
  C446     1.0000 0.39856  0.91027  0.78826  Biso   1.000  C
  H463     1.0000 0.42000  0.90280  0.77470  Biso   1.000  H
  C447     1.0000 0.42425  0.87503  0.84524  Biso   1.000  C
  C448     1.0000 0.30038  0.94612  0.85016  Biso   1.000  C
  C449     1.0000 0.37614  0.94541  0.73040  Biso   1.000  C
  C450     1.0000 0.18994  0.92600  0.87551  Biso   1.000  C
  C451     1.0000 0.15811  0.89668  0.87290  Biso   1.000  C
  C452     1.0000 0.13190  0.89898  0.84395  Biso   1.000  C
  H464     1.0000 0.13370  0.91890  0.82530  Biso   1.000  H
  N81      1.0000 0.44860  0.85630  0.96810  Biso   1.000  N
  C453     1.0000 0.46650  0.89000  0.98060  Biso   1.000  C
  N82      1.0000 0.26480  0.92870  0.96850  Biso   1.000  N
  C454     1.0000 0.29240  0.90360  0.98090  Biso   1.000  C
  C455     1.0000 0.31860  0.88000  0.96100  Biso   1.000  C
  H465     1.0000 0.31890  0.88010  0.93370  Biso   1.000  H
  C456     1.0000 0.34270  0.85810  0.98050  Biso   1.000  C
  H466     1.0000 0.36010  0.84190  0.96690  Biso   1.000  H
  N83      1.0000 0.44260  0.85140  0.96830  Biso   1.000  N
  H467     1.0000 0.45300  0.78040  0.02570  Biso   1.000  H
  H468     1.0000 0.47560  0.78380  0.98740  Biso   1.000  H
  H469     1.0000 0.43150  0.77710  0.98680  Biso   1.000  H
  C457     1.0000 0.43720  0.88810  0.98060  Biso   1.000  C
  C458     1.0000 0.43230  0.92100  0.96040  Biso   1.000  C
  H470     1.0000 0.43230  0.92060  0.93310  Biso   1.000  H
  C459     1.0000 0.42720  0.95510  0.98020  Biso   1.000  C
  H471     1.0000 0.42480  0.97860  0.96650  Biso   1.000  H
  N84      1.0000 0.27490  0.95320  0.96870  Biso   1.000  N
  H472     1.0000 0.22020  0.90500  0.02570  Biso   1.000  H
  H473     1.0000 0.23500  0.88820  0.98720  Biso   1.000  H
  H474     1.0000 0.20550  0.92160  0.98710  Biso   1.000  H
  C460     1.0000 0.30310  0.97790  0.98060  Biso   1.000  C
  C461     1.0000 0.35370  0.02290  0.98040  Biso   1.000  C
  H475     1.0000 0.37150  0.03860  0.96680  Biso   1.000  H
  H476     1.0000 0.41360  0.79020  0.02570  Biso   1.000  H
  H477     1.0000 0.39380  0.80070  0.98720  Biso   1.000  H
  H478     1.0000 0.43320  0.77980  0.98700  Biso   1.000  H
  H479     1.0000 0.21150  0.97690  0.02570  Biso   1.000  H
  H480     1.0000 0.19650  0.96030  0.98720  Biso   1.000  H
  H481     1.0000 0.22640  0.99340  0.98710  Biso   1.000  H
  H482     1.0000 0.51120  0.97340  0.96680  Biso   1.000  H
  C462     1.0000 0.48300  0.92130  0.95980  Biso   1.000  C
  H483     1.0000 0.48260  0.92140  0.93250  Biso   1.000  H
  Zn43     1.0000 0.75700  0.44924  0.41616  Biso   1.000  Zn
  Zn44     1.0000 0.94964  0.33850  0.41485  Biso   1.000  Zn
  O169     1.0000 0.95310  0.36597  0.32651  Biso   1.000  O
  O170     1.0000 0.91720  0.36609  0.37917  Biso   1.000  O
  O171     1.0000 0.77375  0.46029  0.33287  Biso   1.000  O
  O172     1.0000 0.80176  0.44023  0.38568  Biso   1.000  O
  O173     1.0000 0.84880  0.46062  0.21397  Biso   1.000  O
  O174     1.0000 0.90944  0.44130  0.21584  Biso   1.000  O
  O175     1.0000 0.71493  0.41817  0.40117  Biso   1.000  O
  O176     1.0000 0.69014  0.45365  0.35350  Biso   1.000  O
  C463     1.0000 0.89430  0.39898  0.32593  Biso   1.000  C
  C464     1.0000 0.86300  0.41076  0.34565  Biso   1.000  C
  H484     1.0000 0.86040  0.40400  0.37110  Biso   1.000  H
  C465     1.0000 0.83476  0.43282  0.32830  Biso   1.000  C
  C466     1.0000 0.83937  0.44328  0.29066  Biso   1.000  C
  H485     1.0000 0.82070  0.45780  0.27870  Biso   1.000  H
  C467     1.0000 0.87126  0.43252  0.27070  Biso   1.000  C
  C468     1.0000 0.89856  0.41027  0.28826  Biso   1.000  C
  H486     1.0000 0.92000  0.40280  0.27470  Biso   1.000  H
  C469     1.0000 0.92425  0.37503  0.34524  Biso   1.000  C
  C470     1.0000 0.80038  0.44612  0.35016  Biso   1.000  C
  C471     1.0000 0.87614  0.44541  0.23040  Biso   1.000  C
  C472     1.0000 0.68994  0.42600  0.37551  Biso   1.000  C
  C473     1.0000 0.65811  0.39668  0.37290  Biso   1.000  C
  C474     1.0000 0.63190  0.39898  0.34395  Biso   1.000  C
  H487     1.0000 0.63370  0.41890  0.32530  Biso   1.000  H
  N85      1.0000 0.94860  0.35630  0.46810  Biso   1.000  N
  C475     1.0000 0.96650  0.39000  0.48060  Biso   1.000  C
  N86      1.0000 0.76480  0.42870  0.46850  Biso   1.000  N
  C476     1.0000 0.79240  0.40360  0.48090  Biso   1.000  C
  C477     1.0000 0.81860  0.38000  0.46100  Biso   1.000  C
  H488     1.0000 0.81890  0.38010  0.43370  Biso   1.000  H
  C478     1.0000 0.84270  0.35810  0.48050  Biso   1.000  C
  H489     1.0000 0.86010  0.34190  0.46690  Biso   1.000  H
  N87      1.0000 0.94260  0.35140  0.46830  Biso   1.000  N
  H490     1.0000 0.95300  0.28040  0.52570  Biso   1.000  H
  H491     1.0000 0.97560  0.28380  0.48740  Biso   1.000  H
  H492     1.0000 0.93150  0.27710  0.48680  Biso   1.000  H
  C479     1.0000 0.93720  0.38810  0.48060  Biso   1.000  C
  C480     1.0000 0.93230  0.42100  0.46040  Biso   1.000  C
  H493     1.0000 0.93230  0.42060  0.43310  Biso   1.000  H
  C481     1.0000 0.92720  0.45510  0.48020  Biso   1.000  C
  H494     1.0000 0.92480  0.47860  0.46650  Biso   1.000  H
  N88      1.0000 0.77490  0.45320  0.46870  Biso   1.000  N
  H495     1.0000 0.72020  0.40500  0.52570  Biso   1.000  H
  H496     1.0000 0.73500  0.38820  0.48720  Biso   1.000  H
  H497     1.0000 0.70550  0.42160  0.48710  Biso   1.000  H
  C482     1.0000 0.80310  0.47790  0.48060  Biso   1.000  C
  C483     1.0000 0.85370  0.52290  0.48040  Biso   1.000  C
  H498     1.0000 0.87150  0.53860  0.46680  Biso   1.000  H
  H499     1.0000 0.91360  0.29020  0.52570  Biso   1.000  H
  H500     1.0000 0.89380  0.30070  0.48720  Biso   1.000  H
  H501     1.0000 0.93320  0.27980  0.48700  Biso   1.000  H
  H502     1.0000 0.71150  0.47690  0.52570  Biso   1.000  H
  H503     1.0000 0.69650  0.46030  0.48720  Biso   1.000  H
  H504     1.0000 0.72640  0.49340  0.48710  Biso   1.000  H
  H505     1.0000 0.01120  0.47340  0.46680  Biso   1.000  H
  C484     1.0000 0.98300  0.42130  0.45980  Biso   1.000  C
  H506     1.0000 0.98260  0.42140  0.43250  Biso   1.000  H
  Zn45     1.0000 0.74300  0.94924  0.08384  Biso   1.000  Zn
  Zn46     1.0000 0.55036  0.83850  0.08515  Biso   1.000  Zn
  O177     1.0000 0.54690  0.86597  0.17349  Biso   1.000  O
  O178     1.0000 0.58280  0.86609  0.12083  Biso   1.000  O
  O179     1.0000 0.72625  0.96029  0.16713  Biso   1.000  O
  O180     1.0000 0.69824  0.94023  0.11432  Biso   1.000  O
  O181     1.0000 0.65120  0.96062  0.28603  Biso   1.000  O
  O182     1.0000 0.59056  0.94130  0.28416  Biso   1.000  O
  O183     1.0000 0.78507  0.91817  0.09883  Biso   1.000  O
  O184     1.0000 0.80986  0.95365  0.14650  Biso   1.000  O
  C485     1.0000 0.60570  0.89898  0.17407  Biso   1.000  C
  C486     1.0000 0.63700  0.91076  0.15435  Biso   1.000  C
  H507     1.0000 0.63960  0.90400  0.12890  Biso   1.000  H
  C487     1.0000 0.66524  0.93282  0.17170  Biso   1.000  C
  C488     1.0000 0.66063  0.94328  0.20934  Biso   1.000  C
  H508     1.0000 0.67930  0.95780  0.22130  Biso   1.000  H
  C489     1.0000 0.62874  0.93252  0.22930  Biso   1.000  C
  C490     1.0000 0.60144  0.91027  0.21174  Biso   1.000  C
  H509     1.0000 0.58000  0.90280  0.22530  Biso   1.000  H
  C491     1.0000 0.57575  0.87503  0.15476  Biso   1.000  C
  C492     1.0000 0.69962  0.94612  0.14984  Biso   1.000  C
  C493     1.0000 0.62386  0.94541  0.26960  Biso   1.000  C
  C494     1.0000 0.81006  0.92600  0.12449  Biso   1.000  C
  C495     1.0000 0.84189  0.89668  0.12710  Biso   1.000  C
  C496     1.0000 0.86810  0.89898  0.15605  Biso   1.000  C
  H510     1.0000 0.86630  0.91890  0.17470  Biso   1.000  H
  N89      1.0000 0.55140  0.85630  0.03190  Biso   1.000  N
  C497     1.0000 0.53350  0.89000  0.01940  Biso   1.000  C
  N90      1.0000 0.73520  0.92870  0.03150  Biso   1.000  N
  C498     1.0000 0.70760  0.90360  0.01910  Biso   1.000  C
  C499     1.0000 0.68140  0.88000  0.03900  Biso   1.000  C
  H511     1.0000 0.68110  0.88010  0.06630  Biso   1.000  H
  C500     1.0000 0.65730  0.85810  0.01950  Biso   1.000  C
  H512     1.0000 0.63990  0.84190  0.03310  Biso   1.000  H
  N91      1.0000 0.55740  0.85140  0.03170  Biso   1.000  N
  H513     1.0000 0.54700  0.78040  0.97430  Biso   1.000  H
  H514     1.0000 0.52440  0.78380  0.01260  Biso   1.000  H
  H515     1.0000 0.56850  0.77710  0.01320  Biso   1.000  H
  C501     1.0000 0.56280  0.88810  0.01940  Biso   1.000  C
  C502     1.0000 0.56770  0.92100  0.03960  Biso   1.000  C
  H516     1.0000 0.56770  0.92060  0.06690  Biso   1.000  H
  C503     1.0000 0.57280  0.95510  0.01980  Biso   1.000  C
  H517     1.0000 0.57520  0.97860  0.03350  Biso   1.000  H
  N92      1.0000 0.72510  0.95320  0.03130  Biso   1.000  N
  H518     1.0000 0.77980  0.90500  0.97430  Biso   1.000  H
  H519     1.0000 0.76500  0.88820  0.01280  Biso   1.000  H
  H520     1.0000 0.79450  0.92160  0.01290  Biso   1.000  H
  C504     1.0000 0.69690  0.97790  0.01940  Biso   1.000  C
  C505     1.0000 0.64630  0.02290  0.01960  Biso   1.000  C
  H521     1.0000 0.62850  0.03860  0.03320  Biso   1.000  H
  H522     1.0000 0.58640  0.79020  0.97430  Biso   1.000  H
  H523     1.0000 0.60620  0.80070  0.01280  Biso   1.000  H
  H524     1.0000 0.56680  0.77980  0.01300  Biso   1.000  H
  H525     1.0000 0.78850  0.97690  0.97430  Biso   1.000  H
  H526     1.0000 0.80350  0.96030  0.01280  Biso   1.000  H
  H527     1.0000 0.77360  0.99340  0.01290  Biso   1.000  H
  H528     1.0000 0.48880  0.97340  0.03320  Biso   1.000  H
  C506     1.0000 0.51700  0.92130  0.04020  Biso   1.000  C
  H529     1.0000 0.51740  0.92140  0.06750  Biso   1.000  H
  Zn47     1.0000 0.24300  0.44924  0.58384  Biso   1.000  Zn
  Zn48     1.0000 0.05036  0.33850  0.58515  Biso   1.000  Zn
  O185     1.0000 0.04690  0.36597  0.67349  Biso   1.000  O
  O186     1.0000 0.08280  0.36609  0.62083  Biso   1.000  O
  O187     1.0000 0.22625  0.46029  0.66713  Biso   1.000  O
  O188     1.0000 0.19824  0.44023  0.61432  Biso   1.000  O
  O189     1.0000 0.15120  0.46062  0.78603  Biso   1.000  O
  O190     1.0000 0.09056  0.44130  0.78416  Biso   1.000  O
  O191     1.0000 0.28507  0.41817  0.59883  Biso   1.000  O
  O192     1.0000 0.30986  0.45365  0.64650  Biso   1.000  O
  C507     1.0000 0.10570  0.39898  0.67407  Biso   1.000  C
  C508     1.0000 0.13700  0.41076  0.65435  Biso   1.000  C
  H530     1.0000 0.13960  0.40400  0.62890  Biso   1.000  H
  C509     1.0000 0.16524  0.43282  0.67170  Biso   1.000  C
  C510     1.0000 0.16063  0.44328  0.70934  Biso   1.000  C
  H531     1.0000 0.17930  0.45780  0.72130  Biso   1.000  H
  C511     1.0000 0.12874  0.43252  0.72930  Biso   1.000  C
  C512     1.0000 0.10144  0.41027  0.71174  Biso   1.000  C
  H532     1.0000 0.08000  0.40280  0.72530  Biso   1.000  H
  C513     1.0000 0.07575  0.37503  0.65476  Biso   1.000  C
  C514     1.0000 0.19962  0.44612  0.64984  Biso   1.000  C
  C515     1.0000 0.12386  0.44541  0.76960  Biso   1.000  C
  C516     1.0000 0.31006  0.42600  0.62449  Biso   1.000  C
  C517     1.0000 0.34189  0.39668  0.62710  Biso   1.000  C
  C518     1.0000 0.36810  0.39898  0.65605  Biso   1.000  C
  H533     1.0000 0.36630  0.41890  0.67470  Biso   1.000  H
  N93      1.0000 0.05140  0.35630  0.53190  Biso   1.000  N
  C519     1.0000 0.03350  0.39000  0.51940  Biso   1.000  C
  N94      1.0000 0.23520  0.42870  0.53150  Biso   1.000  N
  C520     1.0000 0.20760  0.40360  0.51910  Biso   1.000  C
  C521     1.0000 0.18140  0.38000  0.53900  Biso   1.000  C
  H534     1.0000 0.18110  0.38010  0.56630  Biso   1.000  H
  C522     1.0000 0.15730  0.35810  0.51950  Biso   1.000  C
  H535     1.0000 0.13990  0.34190  0.53310  Biso   1.000  H
  N95      1.0000 0.05740  0.35140  0.53170  Biso   1.000  N
  H536     1.0000 0.04700  0.28040  0.47430  Biso   1.000  H
  H537     1.0000 0.02440  0.28380  0.51260  Biso   1.000  H
  H538     1.0000 0.06850  0.27710  0.51320  Biso   1.000  H
  C523     1.0000 0.06280  0.38810  0.51940  Biso   1.000  C
  C524     1.0000 0.06770  0.42100  0.53960  Biso   1.000  C
  H539     1.0000 0.06770  0.42060  0.56690  Biso   1.000  H
  C525     1.0000 0.07280  0.45510  0.51980  Biso   1.000  C
  H540     1.0000 0.07520  0.47860  0.53350  Biso   1.000  H
  N96      1.0000 0.22510  0.45320  0.53130  Biso   1.000  N
  H541     1.0000 0.27980  0.40500  0.47430  Biso   1.000  H
  H542     1.0000 0.26500  0.38820  0.51280  Biso   1.000  H
  H543     1.0000 0.29450  0.42160  0.51290  Biso   1.000  H
  C526     1.0000 0.19690  0.47790  0.51940  Biso   1.000  C
  C527     1.0000 0.14630  0.52290  0.51960  Biso   1.000  C
  H544     1.0000 0.12850  0.53860  0.53320  Biso   1.000  H
  H545     1.0000 0.08640  0.29020  0.47430  Biso   1.000  H
  H546     1.0000 0.10620  0.30070  0.51280  Biso   1.000  H
  H547     1.0000 0.06680  0.27980  0.51300  Biso   1.000  H
  H548     1.0000 0.28850  0.47690  0.47430  Biso   1.000  H
  H549     1.0000 0.30350  0.46030  0.51280  Biso   1.000  H
  H550     1.0000 0.27360  0.49340  0.51290  Biso   1.000  H
  H551     1.0000 0.98880  0.47340  0.53320  Biso   1.000  H
  C528     1.0000 0.01700  0.42130  0.54020  Biso   1.000  C
  H552     1.0000 0.01740  0.42140  0.56750  Biso   1.000  H
  Zn49     1.0000 0.91616  0.74300  0.94924  Biso   1.000  Zn
  Zn50     1.0000 0.91485  0.55036  0.83850  Biso   1.000  Zn
  O193     1.0000 0.82651  0.54690  0.86597  Biso   1.000  O
  O194     1.0000 0.87917  0.58280  0.86609  Biso   1.000  O
  O195     1.0000 0.83287  0.72625  0.96029  Biso   1.000  O
  O196     1.0000 0.88568  0.69824  0.94023  Biso   1.000  O
  O197     1.0000 0.71397  0.65120  0.96062  Biso   1.000  O
  O198     1.0000 0.71584  0.59056  0.94130  Biso   1.000  O
  O199     1.0000 0.90117  0.78507  0.91817  Biso   1.000  O
  O200     1.0000 0.85350  0.80986  0.95365  Biso   1.000  O
  C529     1.0000 0.82593  0.60570  0.89898  Biso   1.000  C
  C530     1.0000 0.84565  0.63700  0.91076  Biso   1.000  C
  H553     1.0000 0.87110  0.63960  0.90400  Biso   1.000  H
  C531     1.0000 0.82830  0.66524  0.93282  Biso   1.000  C
  C532     1.0000 0.79066  0.66063  0.94328  Biso   1.000  C
  H554     1.0000 0.77870  0.67930  0.95780  Biso   1.000  H
  C533     1.0000 0.77070  0.62874  0.93252  Biso   1.000  C
  C534     1.0000 0.78826  0.60144  0.91027  Biso   1.000  C
  H555     1.0000 0.77470  0.58000  0.90280  Biso   1.000  H
  C535     1.0000 0.84524  0.57575  0.87503  Biso   1.000  C
  C536     1.0000 0.85016  0.69962  0.94612  Biso   1.000  C
  C537     1.0000 0.73040  0.62386  0.94541  Biso   1.000  C
  C538     1.0000 0.87551  0.81006  0.92600  Biso   1.000  C
  C539     1.0000 0.87290  0.84189  0.89668  Biso   1.000  C
  C540     1.0000 0.84395  0.86810  0.89898  Biso   1.000  C
  H556     1.0000 0.82530  0.86630  0.91890  Biso   1.000  H
  N97      1.0000 0.96810  0.55140  0.85630  Biso   1.000  N
  C541     1.0000 0.98060  0.53350  0.89000  Biso   1.000  C
  N98      1.0000 0.96850  0.73520  0.92870  Biso   1.000  N
  C542     1.0000 0.98090  0.70760  0.90360  Biso   1.000  C
  C543     1.0000 0.96100  0.68140  0.88000  Biso   1.000  C
  H557     1.0000 0.93370  0.68110  0.88010  Biso   1.000  H
  C544     1.0000 0.98050  0.65730  0.85810  Biso   1.000  C
  H558     1.0000 0.96690  0.63990  0.84190  Biso   1.000  H
  N99      1.0000 0.96830  0.55740  0.85140  Biso   1.000  N
  H559     1.0000 0.02570  0.54700  0.78040  Biso   1.000  H
  H560     1.0000 0.98740  0.52440  0.78380  Biso   1.000  H
  H561     1.0000 0.98680  0.56850  0.77710  Biso   1.000  H
  C545     1.0000 0.98060  0.56280  0.88810  Biso   1.000  C
  C546     1.0000 0.96040  0.56770  0.92100  Biso   1.000  C
  H562     1.0000 0.93310  0.56770  0.92060  Biso   1.000  H
  C547     1.0000 0.98020  0.57280  0.95510  Biso   1.000  C
  H563     1.0000 0.96650  0.57520  0.97860  Biso   1.000  H
  N100     1.0000 0.96870  0.72510  0.95320  Biso   1.000  N
  H564     1.0000 0.02570  0.77980  0.90500  Biso   1.000  H
  H565     1.0000 0.98720  0.76500  0.88820  Biso   1.000  H
  H566     1.0000 0.98710  0.79450  0.92160  Biso   1.000  H
  C548     1.0000 0.98060  0.69690  0.97790  Biso   1.000  C
  C549     1.0000 0.98040  0.64630  0.02290  Biso   1.000  C
  H567     1.0000 0.96680  0.62850  0.03860  Biso   1.000  H
  H568     1.0000 0.02570  0.58640  0.79020  Biso   1.000  H
  H569     1.0000 0.98720  0.60620  0.80070  Biso   1.000  H
  H570     1.0000 0.98700  0.56680  0.77980  Biso   1.000  H
  H571     1.0000 0.02570  0.78850  0.97690  Biso   1.000  H
  H572     1.0000 0.98720  0.80350  0.96030  Biso   1.000  H
  H573     1.0000 0.98710  0.77360  0.99340  Biso   1.000  H
  H574     1.0000 0.96680  0.48880  0.97340  Biso   1.000  H
  C550     1.0000 0.95980  0.51700  0.92130  Biso   1.000  C
  H575     1.0000 0.93250  0.51740  0.92140  Biso   1.000  H
  Zn51     1.0000 0.41616  0.24300  0.44924  Biso   1.000  Zn
  Zn52     1.0000 0.41485  0.05036  0.33850  Biso   1.000  Zn
  O201     1.0000 0.32651  0.04690  0.36597  Biso   1.000  O
  O202     1.0000 0.37917  0.08280  0.36609  Biso   1.000  O
  O203     1.0000 0.33287  0.22625  0.46029  Biso   1.000  O
  O204     1.0000 0.38568  0.19824  0.44023  Biso   1.000  O
  O205     1.0000 0.21397  0.15120  0.46062  Biso   1.000  O
  O206     1.0000 0.21584  0.09056  0.44130  Biso   1.000  O
  O207     1.0000 0.40117  0.28507  0.41817  Biso   1.000  O
  O208     1.0000 0.35350  0.30986  0.45365  Biso   1.000  O
  C551     1.0000 0.32593  0.10570  0.39898  Biso   1.000  C
  C552     1.0000 0.34565  0.13700  0.41076  Biso   1.000  C
  H576     1.0000 0.37110  0.13960  0.40400  Biso   1.000  H
  C553     1.0000 0.32830  0.16524  0.43282  Biso   1.000  C
  C554     1.0000 0.29066  0.16063  0.44328  Biso   1.000  C
  H577     1.0000 0.27870  0.17930  0.45780  Biso   1.000  H
  C555     1.0000 0.27070  0.12874  0.43252  Biso   1.000  C
  C556     1.0000 0.28826  0.10144  0.41027  Biso   1.000  C
  H578     1.0000 0.27470  0.08000  0.40280  Biso   1.000  H
  C557     1.0000 0.34524  0.07575  0.37503  Biso   1.000  C
  C558     1.0000 0.35016  0.19962  0.44612  Biso   1.000  C
  C559     1.0000 0.23040  0.12386  0.44541  Biso   1.000  C
  C560     1.0000 0.37551  0.31006  0.42600  Biso   1.000  C
  C561     1.0000 0.37290  0.34189  0.39668  Biso   1.000  C
  C562     1.0000 0.34395  0.36810  0.39898  Biso   1.000  C
  H579     1.0000 0.32530  0.36630  0.41890  Biso   1.000  H
  N101     1.0000 0.46810  0.05140  0.35630  Biso   1.000  N
  C563     1.0000 0.48060  0.03350  0.39000  Biso   1.000  C
  N102     1.0000 0.46850  0.23520  0.42870  Biso   1.000  N
  C564     1.0000 0.48090  0.20760  0.40360  Biso   1.000  C
  C565     1.0000 0.46100  0.18140  0.38000  Biso   1.000  C
  H580     1.0000 0.43370  0.18110  0.38010  Biso   1.000  H
  C566     1.0000 0.48050  0.15730  0.35810  Biso   1.000  C
  H581     1.0000 0.46690  0.13990  0.34190  Biso   1.000  H
  N103     1.0000 0.46830  0.05740  0.35140  Biso   1.000  N
  H582     1.0000 0.52570  0.04700  0.28040  Biso   1.000  H
  H583     1.0000 0.48740  0.02440  0.28380  Biso   1.000  H
  H584     1.0000 0.48680  0.06850  0.27710  Biso   1.000  H
  C567     1.0000 0.48060  0.06280  0.38810  Biso   1.000  C
  C568     1.0000 0.46040  0.06770  0.42100  Biso   1.000  C
  H585     1.0000 0.43310  0.06770  0.42060  Biso   1.000  H
  C569     1.0000 0.48020  0.07280  0.45510  Biso   1.000  C
  H586     1.0000 0.46650  0.07520  0.47860  Biso   1.000  H
  N104     1.0000 0.46870  0.22510  0.45320  Biso   1.000  N
  H587     1.0000 0.52570  0.27980  0.40500  Biso   1.000  H
  H588     1.0000 0.48720  0.26500  0.38820  Biso   1.000  H
  H589     1.0000 0.48710  0.29450  0.42160  Biso   1.000  H
  C570     1.0000 0.48060  0.19690  0.47790  Biso   1.000  C
  C571     1.0000 0.48040  0.14630  0.52290  Biso   1.000  C
  H590     1.0000 0.46680  0.12850  0.53860  Biso   1.000  H
  H591     1.0000 0.52570  0.08640  0.29020  Biso   1.000  H
  H592     1.0000 0.48720  0.10620  0.30070  Biso   1.000  H
  H593     1.0000 0.48700  0.06680  0.27980  Biso   1.000  H
  H594     1.0000 0.52570  0.28850  0.47690  Biso   1.000  H
  H595     1.0000 0.48720  0.30350  0.46030  Biso   1.000  H
  H596     1.0000 0.48710  0.27360  0.49340  Biso   1.000  H
  H597     1.0000 0.46680  0.98880  0.47340  Biso   1.000  H
  C572     1.0000 0.45980  0.01700  0.42130  Biso   1.000  C
  H598     1.0000 0.43250  0.01740  0.42140  Biso   1.000  H
  Zn53     1.0000 0.08384  0.25700  0.94924  Biso   1.000  Zn
  Zn54     1.0000 0.08515  0.44964  0.83850  Biso   1.000  Zn
  O209     1.0000 0.17349  0.45310  0.86597  Biso   1.000  O
  O210     1.0000 0.12083  0.41720  0.86609  Biso   1.000  O
  O211     1.0000 0.16713  0.27375  0.96029  Biso   1.000  O
  O212     1.0000 0.11432  0.30176  0.94023  Biso   1.000  O
  O213     1.0000 0.28603  0.34880  0.96062  Biso   1.000  O
  O214     1.0000 0.28416  0.40944  0.94130  Biso   1.000  O
  O215     1.0000 0.09883  0.21493  0.91817  Biso   1.000  O
  O216     1.0000 0.14650  0.19014  0.95365  Biso   1.000  O
  C573     1.0000 0.17407  0.39430  0.89898  Biso   1.000  C
  C574     1.0000 0.15435  0.36300  0.91076  Biso   1.000  C
  H599     1.0000 0.12890  0.36040  0.90400  Biso   1.000  H
  C575     1.0000 0.17170  0.33476  0.93282  Biso   1.000  C
  C576     1.0000 0.20934  0.33937  0.94328  Biso   1.000  C
  H600     1.0000 0.22130  0.32070  0.95780  Biso   1.000  H
  C577     1.0000 0.22930  0.37126  0.93252  Biso   1.000  C
  C578     1.0000 0.21174  0.39856  0.91027  Biso   1.000  C
  H601     1.0000 0.22530  0.42000  0.90280  Biso   1.000  H
  C579     1.0000 0.15476  0.42425  0.87503  Biso   1.000  C
  C580     1.0000 0.14984  0.30038  0.94612  Biso   1.000  C
  C581     1.0000 0.26960  0.37614  0.94541  Biso   1.000  C
  C582     1.0000 0.12449  0.18994  0.92600  Biso   1.000  C
  C583     1.0000 0.12710  0.15811  0.89668  Biso   1.000  C
  C584     1.0000 0.15605  0.13190  0.89898  Biso   1.000  C
  H602     1.0000 0.17470  0.13370  0.91890  Biso   1.000  H
  N105     1.0000 0.03190  0.44860  0.85630  Biso   1.000  N
  C585     1.0000 0.01940  0.46650  0.89000  Biso   1.000  C
  N106     1.0000 0.03150  0.26480  0.92870  Biso   1.000  N
  C586     1.0000 0.01910  0.29240  0.90360  Biso   1.000  C
  C587     1.0000 0.03900  0.31860  0.88000  Biso   1.000  C
  H603     1.0000 0.06630  0.31890  0.88010  Biso   1.000  H
  C588     1.0000 0.01950  0.34270  0.85810  Biso   1.000  C
  H604     1.0000 0.03310  0.36010  0.84190  Biso   1.000  H
  N107     1.0000 0.03170  0.44260  0.85140  Biso   1.000  N
  H605     1.0000 0.97430  0.45300  0.78040  Biso   1.000  H
  H606     1.0000 0.01260  0.47560  0.78380  Biso   1.000  H
  H607     1.0000 0.01320  0.43150  0.77710  Biso   1.000  H
  C589     1.0000 0.01940  0.43720  0.88810  Biso   1.000  C
  C590     1.0000 0.03960  0.43230  0.92100  Biso   1.000  C
  H608     1.0000 0.06690  0.43230  0.92060  Biso   1.000  H
  C591     1.0000 0.01980  0.42720  0.95510  Biso   1.000  C
  H609     1.0000 0.03350  0.42480  0.97860  Biso   1.000  H
  N108     1.0000 0.03130  0.27490  0.95320  Biso   1.000  N
  H610     1.0000 0.97430  0.22020  0.90500  Biso   1.000  H
  H611     1.0000 0.01280  0.23500  0.88820  Biso   1.000  H
  H612     1.0000 0.01290  0.20550  0.92160  Biso   1.000  H
  C592     1.0000 0.01940  0.30310  0.97790  Biso   1.000  C
  C593     1.0000 0.01960  0.35370  0.02290  Biso   1.000  C
  H613     1.0000 0.03320  0.37150  0.03860  Biso   1.000  H
  H614     1.0000 0.97430  0.41360  0.79020  Biso   1.000  H
  H615     1.0000 0.01280  0.39380  0.80070  Biso   1.000  H
  H616     1.0000 0.01300  0.43320  0.77980  Biso   1.000  H
  H617     1.0000 0.97430  0.21150  0.97690  Biso   1.000  H
  H618     1.0000 0.01280  0.19650  0.96030  Biso   1.000  H
  H619     1.0000 0.01290  0.22640  0.99340  Biso   1.000  H
  H620     1.0000 0.03320  0.51120  0.97340  Biso   1.000  H
  C594     1.0000 0.04020  0.48300  0.92130  Biso   1.000  C
  H621     1.0000 0.06750  0.48260  0.92140  Biso   1.000  H
  Zn55     1.0000 0.58384  0.75700  0.44924  Biso   1.000  Zn
  Zn56     1.0000 0.58515  0.94964  0.33850  Biso   1.000  Zn
  O217     1.0000 0.67349  0.95310  0.36597  Biso   1.000  O
  O218     1.0000 0.62083  0.91720  0.36609  Biso   1.000  O
  O219     1.0000 0.66713  0.77375  0.46029  Biso   1.000  O
  O220     1.0000 0.61432  0.80176  0.44023  Biso   1.000  O
  O221     1.0000 0.78603  0.84880  0.46062  Biso   1.000  O
  O222     1.0000 0.78416  0.90944  0.44130  Biso   1.000  O
  O223     1.0000 0.59883  0.71493  0.41817  Biso   1.000  O
  O224     1.0000 0.64650  0.69014  0.45365  Biso   1.000  O
  C595     1.0000 0.67407  0.89430  0.39898  Biso   1.000  C
  C596     1.0000 0.65435  0.86300  0.41076  Biso   1.000  C
  H622     1.0000 0.62890  0.86040  0.40400  Biso   1.000  H
  C597     1.0000 0.67170  0.83476  0.43282  Biso   1.000  C
  C598     1.0000 0.70934  0.83937  0.44328  Biso   1.000  C
  H623     1.0000 0.72130  0.82070  0.45780  Biso   1.000  H
  C599     1.0000 0.72930  0.87126  0.43252  Biso   1.000  C
  C600     1.0000 0.71174  0.89856  0.41027  Biso   1.000  C
  H624     1.0000 0.72530  0.92000  0.40280  Biso   1.000  H
  C601     1.0000 0.65476  0.92425  0.37503  Biso   1.000  C
  C602     1.0000 0.64984  0.80038  0.44612  Biso   1.000  C
  C603     1.0000 0.76960  0.87614  0.44541  Biso   1.000  C
  C604     1.0000 0.62449  0.68994  0.42600  Biso   1.000  C
  C605     1.0000 0.62710  0.65811  0.39668  Biso   1.000  C
  C606     1.0000 0.65605  0.63190  0.39898  Biso   1.000  C
  H625     1.0000 0.67470  0.63370  0.41890  Biso   1.000  H
  N109     1.0000 0.53190  0.94860  0.35630  Biso   1.000  N
  C607     1.0000 0.51940  0.96650  0.39000  Biso   1.000  C
  N110     1.0000 0.53150  0.76480  0.42870  Biso   1.000  N
  C608     1.0000 0.51910  0.79240  0.40360  Biso   1.000  C
  C609     1.0000 0.53900  0.81860  0.38000  Biso   1.000  C
  H626     1.0000 0.56630  0.81890  0.38010  Biso   1.000  H
  C610     1.0000 0.51950  0.84270  0.35810  Biso   1.000  C
  H627     1.0000 0.53310  0.86010  0.34190  Biso   1.000  H
  N111     1.0000 0.53170  0.94260  0.35140  Biso   1.000  N
  H628     1.0000 0.47430  0.95300  0.28040  Biso   1.000  H
  H629     1.0000 0.51260  0.97560  0.28380  Biso   1.000  H
  H630     1.0000 0.51320  0.93150  0.27710  Biso   1.000  H
  C611     1.0000 0.51940  0.93720  0.38810  Biso   1.000  C
  C612     1.0000 0.53960  0.93230  0.42100  Biso   1.000  C
  H631     1.0000 0.56690  0.93230  0.42060  Biso   1.000  H
  C613     1.0000 0.51980  0.92720  0.45510  Biso   1.000  C
  H632     1.0000 0.53350  0.92480  0.47860  Biso   1.000  H
  N112     1.0000 0.53130  0.77490  0.45320  Biso   1.000  N
  H633     1.0000 0.47430  0.72020  0.40500  Biso   1.000  H
  H634     1.0000 0.51280  0.73500  0.38820  Biso   1.000  H
  H635     1.0000 0.51290  0.70550  0.42160  Biso   1.000  H
  C614     1.0000 0.51940  0.80310  0.47790  Biso   1.000  C
  C615     1.0000 0.51960  0.85370  0.52290  Biso   1.000  C
  H636     1.0000 0.53320  0.87150  0.53860  Biso   1.000  H
  H637     1.0000 0.47430  0.91360  0.29020  Biso   1.000  H
  H638     1.0000 0.51280  0.89380  0.30070  Biso   1.000  H
  H639     1.0000 0.51300  0.93320  0.27980  Biso   1.000  H
  H640     1.0000 0.47430  0.71150  0.47690  Biso   1.000  H
  H641     1.0000 0.51280  0.69650  0.46030  Biso   1.000  H
  H642     1.0000 0.51290  0.72640  0.49340  Biso   1.000  H
  H643     1.0000 0.53320  0.01120  0.47340  Biso   1.000  H
  C616     1.0000 0.54020  0.98300  0.42130  Biso   1.000  C
  H644     1.0000 0.56750  0.98260  0.42140  Biso   1.000  H
  Zn57     1.0000 0.08384  0.74300  0.05076  Biso   1.000  Zn
  Zn58     1.0000 0.08515  0.55036  0.16150  Biso   1.000  Zn
  O225     1.0000 0.17349  0.54690  0.13403  Biso   1.000  O
  O226     1.0000 0.12083  0.58280  0.13391  Biso   1.000  O
  O227     1.0000 0.16713  0.72625  0.03971  Biso   1.000  O
  O228     1.0000 0.11432  0.69824  0.05977  Biso   1.000  O
  O229     1.0000 0.28603  0.65120  0.03938  Biso   1.000  O
  O230     1.0000 0.28416  0.59056  0.05870  Biso   1.000  O
  O231     1.0000 0.09883  0.78507  0.08183  Biso   1.000  O
  O232     1.0000 0.14650  0.80986  0.04635  Biso   1.000  O
  C617     1.0000 0.17407  0.60570  0.10102  Biso   1.000  C
  C618     1.0000 0.15435  0.63700  0.08924  Biso   1.000  C
  H645     1.0000 0.12890  0.63960  0.09600  Biso   1.000  H
  C619     1.0000 0.17170  0.66524  0.06718  Biso   1.000  C
  C620     1.0000 0.20934  0.66063  0.05672  Biso   1.000  C
  H646     1.0000 0.22130  0.67930  0.04220  Biso   1.000  H
  C621     1.0000 0.22930  0.62874  0.06748  Biso   1.000  C
  C622     1.0000 0.21174  0.60144  0.08973  Biso   1.000  C
  H647     1.0000 0.22530  0.58000  0.09720  Biso   1.000  H
  C623     1.0000 0.15476  0.57575  0.12497  Biso   1.000  C
  C624     1.0000 0.14984  0.69962  0.05388  Biso   1.000  C
  C625     1.0000 0.26960  0.62386  0.05459  Biso   1.000  C
  C626     1.0000 0.12449  0.81006  0.07400  Biso   1.000  C
  C627     1.0000 0.12710  0.84189  0.10332  Biso   1.000  C
  C628     1.0000 0.15605  0.86810  0.10102  Biso   1.000  C
  H648     1.0000 0.17470  0.86630  0.08110  Biso   1.000  H
  N113     1.0000 0.03190  0.55140  0.14370  Biso   1.000  N
  C629     1.0000 0.01940  0.53350  0.11000  Biso   1.000  C
  N114     1.0000 0.03150  0.73520  0.07130  Biso   1.000  N
  C630     1.0000 0.01910  0.70760  0.09640  Biso   1.000  C
  C631     1.0000 0.03900  0.68140  0.12000  Biso   1.000  C
  H649     1.0000 0.06630  0.68110  0.11990  Biso   1.000  H
  C632     1.0000 0.01950  0.65730  0.14190  Biso   1.000  C
  H650     1.0000 0.03310  0.63990  0.15810  Biso   1.000  H
  N115     1.0000 0.03170  0.55740  0.14860  Biso   1.000  N
  H651     1.0000 0.97430  0.54700  0.21960  Biso   1.000  H
  H652     1.0000 0.01260  0.52440  0.21620  Biso   1.000  H
  H653     1.0000 0.01320  0.56850  0.22290  Biso   1.000  H
  C633     1.0000 0.01940  0.56280  0.11190  Biso   1.000  C
  C634     1.0000 0.03960  0.56770  0.07900  Biso   1.000  C
  H654     1.0000 0.06690  0.56770  0.07940  Biso   1.000  H
  C635     1.0000 0.01980  0.57280  0.04490  Biso   1.000  C
  H655     1.0000 0.03350  0.57520  0.02140  Biso   1.000  H
  N116     1.0000 0.03130  0.72510  0.04680  Biso   1.000  N
  H656     1.0000 0.97430  0.77980  0.09500  Biso   1.000  H
  H657     1.0000 0.01280  0.76500  0.11180  Biso   1.000  H
  H658     1.0000 0.01290  0.79450  0.07840  Biso   1.000  H
  C636     1.0000 0.01940  0.69690  0.02210  Biso   1.000  C
  C637     1.0000 0.01960  0.64630  0.97710  Biso   1.000  C
  H659     1.0000 0.03320  0.62850  0.96140  Biso   1.000  H
  H660     1.0000 0.97430  0.58640  0.20980  Biso   1.000  H
  H661     1.0000 0.01280  0.60620  0.19930  Biso   1.000  H
  H662     1.0000 0.01300  0.56680  0.22020  Biso   1.000  H
  H663     1.0000 0.97430  0.78850  0.02310  Biso   1.000  H
  H664     1.0000 0.01280  0.80350  0.03970  Biso   1.000  H
  H665     1.0000 0.01290  0.77360  0.00660  Biso   1.000  H
  H666     1.0000 0.03320  0.48880  0.02660  Biso   1.000  H
  C638     1.0000 0.04020  0.51700  0.07870  Biso   1.000  C
  H667     1.0000 0.06750  0.51740  0.07860  Biso   1.000  H
  Zn59     1.0000 0.58384  0.24300  0.55076  Biso   1.000  Zn
  Zn60     1.0000 0.58515  0.05036  0.66150  Biso   1.000  Zn
  O233     1.0000 0.67349  0.04690  0.63403  Biso   1.000  O
  O234     1.0000 0.62083  0.08280  0.63391  Biso   1.000  O
  O235     1.0000 0.66713  0.22625  0.53971  Biso   1.000  O
  O236     1.0000 0.61432  0.19824  0.55977  Biso   1.000  O
  O237     1.0000 0.78603  0.15120  0.53938  Biso   1.000  O
  O238     1.0000 0.78416  0.09056  0.55870  Biso   1.000  O
  O239     1.0000 0.59883  0.28507  0.58183  Biso   1.000  O
  O240     1.0000 0.64650  0.30986  0.54635  Biso   1.000  O
  C639     1.0000 0.67407  0.10570  0.60102  Biso   1.000  C
  C640     1.0000 0.65435  0.13700  0.58924  Biso   1.000  C
  H668     1.0000 0.62890  0.13960  0.59600  Biso   1.000  H
  C641     1.0000 0.67170  0.16524  0.56718  Biso   1.000  C
  C642     1.0000 0.70934  0.16063  0.55672  Biso   1.000  C
  H669     1.0000 0.72130  0.17930  0.54220  Biso   1.000  H
  C643     1.0000 0.72930  0.12874  0.56748  Biso   1.000  C
  C644     1.0000 0.71174  0.10144  0.58973  Biso   1.000  C
  H670     1.0000 0.72530  0.08000  0.59720  Biso   1.000  H
  C645     1.0000 0.65476  0.07575  0.62497  Biso   1.000  C
  C646     1.0000 0.64984  0.19962  0.55388  Biso   1.000  C
  C647     1.0000 0.76960  0.12386  0.55459  Biso   1.000  C
  C648     1.0000 0.62449  0.31006  0.57400  Biso   1.000  C
  C649     1.0000 0.62710  0.34189  0.60332  Biso   1.000  C
  C650     1.0000 0.65605  0.36810  0.60102  Biso   1.000  C
  H671     1.0000 0.67470  0.36630  0.58110  Biso   1.000  H
  N117     1.0000 0.53190  0.05140  0.64370  Biso   1.000  N
  C651     1.0000 0.51940  0.03350  0.61000  Biso   1.000  C
  N118     1.0000 0.53150  0.23520  0.57130  Biso   1.000  N
  C652     1.0000 0.51910  0.20760  0.59640  Biso   1.000  C
  C653     1.0000 0.53900  0.18140  0.62000  Biso   1.000  C
  H672     1.0000 0.56630  0.18110  0.61990  Biso   1.000  H
  C654     1.0000 0.51950  0.15730  0.64190  Biso   1.000  C
  H673     1.0000 0.53310  0.13990  0.65810  Biso   1.000  H
  N119     1.0000 0.53170  0.05740  0.64860  Biso   1.000  N
  H674     1.0000 0.47430  0.04700  0.71960  Biso   1.000  H
  H675     1.0000 0.51260  0.02440  0.71620  Biso   1.000  H
  H676     1.0000 0.51320  0.06850  0.72290  Biso   1.000  H
  C655     1.0000 0.51940  0.06280  0.61190  Biso   1.000  C
  C656     1.0000 0.53960  0.06770  0.57900  Biso   1.000  C
  H677     1.0000 0.56690  0.06770  0.57940  Biso   1.000  H
  C657     1.0000 0.51980  0.07280  0.54490  Biso   1.000  C
  H678     1.0000 0.53350  0.07520  0.52140  Biso   1.000  H
  N120     1.0000 0.53130  0.22510  0.54680  Biso   1.000  N
  H679     1.0000 0.47430  0.27980  0.59500  Biso   1.000  H
  H680     1.0000 0.51280  0.26500  0.61180  Biso   1.000  H
  H681     1.0000 0.51290  0.29450  0.57840  Biso   1.000  H
  C658     1.0000 0.51940  0.19690  0.52210  Biso   1.000  C
  C659     1.0000 0.51960  0.14630  0.47710  Biso   1.000  C
  H682     1.0000 0.53320  0.12850  0.46140  Biso   1.000  H
  H683     1.0000 0.47430  0.08640  0.70980  Biso   1.000  H
  H684     1.0000 0.51280  0.10620  0.69930  Biso   1.000  H
  H685     1.0000 0.51300  0.06680  0.72020  Biso   1.000  H
  H686     1.0000 0.47430  0.28850  0.52310  Biso   1.000  H
  H687     1.0000 0.51280  0.30350  0.53970  Biso   1.000  H
  H688     1.0000 0.51290  0.27360  0.50660  Biso   1.000  H
  H689     1.0000 0.53320  0.98880  0.52660  Biso   1.000  H
  C660     1.0000 0.54020  0.01700  0.57870  Biso   1.000  C
  H690     1.0000 0.56750  0.01740  0.57860  Biso   1.000  H
  Zn61     1.0000 0.91616  0.25700  0.05076  Biso   1.000  Zn
  Zn62     1.0000 0.91485  0.44964  0.16150  Biso   1.000  Zn
  O241     1.0000 0.82651  0.45310  0.13403  Biso   1.000  O
  O242     1.0000 0.87917  0.41720  0.13391  Biso   1.000  O
  O243     1.0000 0.83287  0.27375  0.03971  Biso   1.000  O
  O244     1.0000 0.88568  0.30176  0.05977  Biso   1.000  O
  O245     1.0000 0.71397  0.34880  0.03938  Biso   1.000  O
  O246     1.0000 0.71584  0.40944  0.05870  Biso   1.000  O
  O247     1.0000 0.90117  0.21493  0.08183  Biso   1.000  O
  O248     1.0000 0.85350  0.19014  0.04635  Biso   1.000  O
  C661     1.0000 0.82593  0.39430  0.10102  Biso   1.000  C
  C662     1.0000 0.84565  0.36300  0.08924  Biso   1.000  C
  H691     1.0000 0.87110  0.36040  0.09600  Biso   1.000  H
  C663     1.0000 0.82830  0.33476  0.06718  Biso   1.000  C
  C664     1.0000 0.79066  0.33937  0.05672  Biso   1.000  C
  H692     1.0000 0.77870  0.32070  0.04220  Biso   1.000  H
  C665     1.0000 0.77070  0.37126  0.06748  Biso   1.000  C
  C666     1.0000 0.78826  0.39856  0.08973  Biso   1.000  C
  H693     1.0000 0.77470  0.42000  0.09720  Biso   1.000  H
  C667     1.0000 0.84524  0.42425  0.12497  Biso   1.000  C
  C668     1.0000 0.85016  0.30038  0.05388  Biso   1.000  C
  C669     1.0000 0.73040  0.37614  0.05459  Biso   1.000  C
  C670     1.0000 0.87551  0.18994  0.07400  Biso   1.000  C
  C671     1.0000 0.87290  0.15811  0.10332  Biso   1.000  C
  C672     1.0000 0.84395  0.13190  0.10102  Biso   1.000  C
  H694     1.0000 0.82530  0.13370  0.08110  Biso   1.000  H
  N121     1.0000 0.96810  0.44860  0.14370  Biso   1.000  N
  C673     1.0000 0.98060  0.46650  0.11000  Biso   1.000  C
  N122     1.0000 0.96850  0.26480  0.07130  Biso   1.000  N
  C674     1.0000 0.98090  0.29240  0.09640  Biso   1.000  C
  C675     1.0000 0.96100  0.31860  0.12000  Biso   1.000  C
  H695     1.0000 0.93370  0.31890  0.11990  Biso   1.000  H
  C676     1.0000 0.98050  0.34270  0.14190  Biso   1.000  C
  H696     1.0000 0.96690  0.36010  0.15810  Biso   1.000  H
  N123     1.0000 0.96830  0.44260  0.14860  Biso   1.000  N
  H697     1.0000 0.02570  0.45300  0.21960  Biso   1.000  H
  H698     1.0000 0.98740  0.47560  0.21620  Biso   1.000  H
  H699     1.0000 0.98680  0.43150  0.22290  Biso   1.000  H
  C677     1.0000 0.98060  0.43720  0.11190  Biso   1.000  C
  C678     1.0000 0.96040  0.43230  0.07900  Biso   1.000  C
  H700     1.0000 0.93310  0.43230  0.07940  Biso   1.000  H
  C679     1.0000 0.98020  0.42720  0.04490  Biso   1.000  C
  H701     1.0000 0.96650  0.42480  0.02140  Biso   1.000  H
  N124     1.0000 0.96870  0.27490  0.04680  Biso   1.000  N
  H702     1.0000 0.02570  0.22020  0.09500  Biso   1.000  H
  H703     1.0000 0.98720  0.23500  0.11180  Biso   1.000  H
  H704     1.0000 0.98710  0.20550  0.07840  Biso   1.000  H
  C680     1.0000 0.98060  0.30310  0.02210  Biso   1.000  C
  C681     1.0000 0.98040  0.35370  0.97710  Biso   1.000  C
  H705     1.0000 0.96680  0.37150  0.96140  Biso   1.000  H
  H706     1.0000 0.02570  0.41360  0.20980  Biso   1.000  H
  H707     1.0000 0.98720  0.39380  0.19930  Biso   1.000  H
  H708     1.0000 0.98700  0.43320  0.22020  Biso   1.000  H
  H709     1.0000 0.02570  0.21150  0.02310  Biso   1.000  H
  H710     1.0000 0.98720  0.19650  0.03970  Biso   1.000  H
  H711     1.0000 0.98710  0.22640  0.00660  Biso   1.000  H
  H712     1.0000 0.96680  0.51120  0.02660  Biso   1.000  H
  C682     1.0000 0.95980  0.48300  0.07870  Biso   1.000  C
  H713     1.0000 0.93250  0.48260  0.07860  Biso   1.000  H
  Zn63     1.0000 0.41616  0.75700  0.55076  Biso   1.000  Zn
  Zn64     1.0000 0.41485  0.94964  0.66150  Biso   1.000  Zn
  O249     1.0000 0.32651  0.95310  0.63403  Biso   1.000  O
  O250     1.0000 0.37917  0.91720  0.63391  Biso   1.000  O
  O251     1.0000 0.33287  0.77375  0.53971  Biso   1.000  O
  O252     1.0000 0.38568  0.80176  0.55977  Biso   1.000  O
  O253     1.0000 0.21397  0.84880  0.53938  Biso   1.000  O
  O254     1.0000 0.21584  0.90944  0.55870  Biso   1.000  O
  O255     1.0000 0.40117  0.71493  0.58183  Biso   1.000  O
  O256     1.0000 0.35350  0.69014  0.54635  Biso   1.000  O
  C683     1.0000 0.32593  0.89430  0.60102  Biso   1.000  C
  C684     1.0000 0.34565  0.86300  0.58924  Biso   1.000  C
  H714     1.0000 0.37110  0.86040  0.59600  Biso   1.000  H
  C685     1.0000 0.32830  0.83476  0.56718  Biso   1.000  C
  C686     1.0000 0.29066  0.83937  0.55672  Biso   1.000  C
  H715     1.0000 0.27870  0.82070  0.54220  Biso   1.000  H
  C687     1.0000 0.27070  0.87126  0.56748  Biso   1.000  C
  C688     1.0000 0.28826  0.89856  0.58973  Biso   1.000  C
  H716     1.0000 0.27470  0.92000  0.59720  Biso   1.000  H
  C689     1.0000 0.34524  0.92425  0.62497  Biso   1.000  C
  C690     1.0000 0.35016  0.80038  0.55388  Biso   1.000  C
  C691     1.0000 0.23040  0.87614  0.55459  Biso   1.000  C
  C692     1.0000 0.37551  0.68994  0.57400  Biso   1.000  C
  C693     1.0000 0.37290  0.65811  0.60332  Biso   1.000  C
  C694     1.0000 0.34395  0.63190  0.60102  Biso   1.000  C
  H717     1.0000 0.32530  0.63370  0.58110  Biso   1.000  H
  N125     1.0000 0.46810  0.94860  0.64370  Biso   1.000  N
  C695     1.0000 0.48060  0.96650  0.61000  Biso   1.000  C
  N126     1.0000 0.46850  0.76480  0.57130  Biso   1.000  N
  C696     1.0000 0.48090  0.79240  0.59640  Biso   1.000  C
  C697     1.0000 0.46100  0.81860  0.62000  Biso   1.000  C
  H718     1.0000 0.43370  0.81890  0.61990  Biso   1.000  H
  C698     1.0000 0.48050  0.84270  0.64190  Biso   1.000  C
  H719     1.0000 0.46690  0.86010  0.65810  Biso   1.000  H
  N127     1.0000 0.46830  0.94260  0.64860  Biso   1.000  N
  H720     1.0000 0.52570  0.95300  0.71960  Biso   1.000  H
  H721     1.0000 0.48740  0.97560  0.71620  Biso   1.000  H
  H722     1.0000 0.48680  0.93150  0.72290  Biso   1.000  H
  C699     1.0000 0.48060  0.93720  0.61190  Biso   1.000  C
  C700     1.0000 0.46040  0.93230  0.57900  Biso   1.000  C
  H723     1.0000 0.43310  0.93230  0.57940  Biso   1.000  H
  C701     1.0000 0.48020  0.92720  0.54490  Biso   1.000  C
  H724     1.0000 0.46650  0.92480  0.52140  Biso   1.000  H
  N128     1.0000 0.46870  0.77490  0.54680  Biso   1.000  N
  H725     1.0000 0.52570  0.72020  0.59500  Biso   1.000  H
  H726     1.0000 0.48720  0.73500  0.61180  Biso   1.000  H
  H727     1.0000 0.48710  0.70550  0.57840  Biso   1.000  H
  C702     1.0000 0.48060  0.80310  0.52210  Biso   1.000  C
  C703     1.0000 0.48040  0.85370  0.47710  Biso   1.000  C
  H728     1.0000 0.46680  0.87150  0.46140  Biso   1.000  H
  H729     1.0000 0.52570  0.91360  0.70980  Biso   1.000  H
  H730     1.0000 0.48720  0.89380  0.69930  Biso   1.000  H
  H731     1.0000 0.48700  0.93320  0.72020  Biso   1.000  H
  H732     1.0000 0.52570  0.71150  0.52310  Biso   1.000  H
  H733     1.0000 0.48720  0.69650  0.53970  Biso   1.000  H
  H734     1.0000 0.48710  0.72640  0.50660  Biso   1.000  H
  H735     1.0000 0.46680  0.01120  0.52660  Biso   1.000  H
  C704     1.0000 0.45980  0.98300  0.57870  Biso   1.000  C
  H736     1.0000 0.43250  0.98260  0.57860  Biso   1.000  H
  Zn65     1.0000 0.94924  0.91616  0.74300  Biso   1.000  Zn
  Zn66     1.0000 0.83850  0.91485  0.55036  Biso   1.000  Zn
  O257     1.0000 0.86597  0.82651  0.54690  Biso   1.000  O
  O258     1.0000 0.86609  0.87917  0.58280  Biso   1.000  O
  O259     1.0000 0.96029  0.83287  0.72625  Biso   1.000  O
  O260     1.0000 0.94023  0.88568  0.69824  Biso   1.000  O
  O261     1.0000 0.96062  0.71397  0.65120  Biso   1.000  O
  O262     1.0000 0.94130  0.71584  0.59056  Biso   1.000  O
  O263     1.0000 0.91817  0.90117  0.78507  Biso   1.000  O
  O264     1.0000 0.95365  0.85350  0.80986  Biso   1.000  O
  C705     1.0000 0.89898  0.82593  0.60570  Biso   1.000  C
  C706     1.0000 0.91076  0.84565  0.63700  Biso   1.000  C
  H737     1.0000 0.90400  0.87110  0.63960  Biso   1.000  H
  C707     1.0000 0.93282  0.82830  0.66524  Biso   1.000  C
  C708     1.0000 0.94328  0.79066  0.66063  Biso   1.000  C
  H738     1.0000 0.95780  0.77870  0.67930  Biso   1.000  H
  C709     1.0000 0.93252  0.77070  0.62874  Biso   1.000  C
  C710     1.0000 0.91027  0.78826  0.60144  Biso   1.000  C
  H739     1.0000 0.90280  0.77470  0.58000  Biso   1.000  H
  C711     1.0000 0.87503  0.84524  0.57575  Biso   1.000  C
  C712     1.0000 0.94612  0.85016  0.69962  Biso   1.000  C
  C713     1.0000 0.94541  0.73040  0.62386  Biso   1.000  C
  C714     1.0000 0.92600  0.87551  0.81006  Biso   1.000  C
  C715     1.0000 0.89668  0.87290  0.84189  Biso   1.000  C
  C716     1.0000 0.89898  0.84395  0.86810  Biso   1.000  C
  H740     1.0000 0.91890  0.82530  0.86630  Biso   1.000  H
  N129     1.0000 0.85630  0.96810  0.55140  Biso   1.000  N
  C717     1.0000 0.89000  0.98060  0.53350  Biso   1.000  C
  N130     1.0000 0.92870  0.96850  0.73520  Biso   1.000  N
  C718     1.0000 0.90360  0.98090  0.70760  Biso   1.000  C
  C719     1.0000 0.88000  0.96100  0.68140  Biso   1.000  C
  H741     1.0000 0.88010  0.93370  0.68110  Biso   1.000  H
  C720     1.0000 0.85810  0.98050  0.65730  Biso   1.000  C
  H742     1.0000 0.84190  0.96690  0.63990  Biso   1.000  H
  N131     1.0000 0.85140  0.96830  0.55740  Biso   1.000  N
  H743     1.0000 0.78040  0.02570  0.54700  Biso   1.000  H
  H744     1.0000 0.78380  0.98740  0.52440  Biso   1.000  H
  H745     1.0000 0.77710  0.98680  0.56850  Biso   1.000  H
  C721     1.0000 0.88810  0.98060  0.56280  Biso   1.000  C
  C722     1.0000 0.92100  0.96040  0.56770  Biso   1.000  C
  H746     1.0000 0.92060  0.93310  0.56770  Biso   1.000  H
  C723     1.0000 0.95510  0.98020  0.57280  Biso   1.000  C
  H747     1.0000 0.97860  0.96650  0.57520  Biso   1.000  H
  N132     1.0000 0.95320  0.96870  0.72510  Biso   1.000  N
  H748     1.0000 0.90500  0.02570  0.77980  Biso   1.000  H
  H749     1.0000 0.88820  0.98720  0.76500  Biso   1.000  H
  H750     1.0000 0.92160  0.98710  0.79450  Biso   1.000  H
  C724     1.0000 0.97790  0.98060  0.69690  Biso   1.000  C
  C725     1.0000 0.02290  0.98040  0.64630  Biso   1.000  C
  H751     1.0000 0.03860  0.96680  0.62850  Biso   1.000  H
  H752     1.0000 0.79020  0.02570  0.58640  Biso   1.000  H
  H753     1.0000 0.80070  0.98720  0.60620  Biso   1.000  H
  H754     1.0000 0.77980  0.98700  0.56680  Biso   1.000  H
  H755     1.0000 0.97690  0.02570  0.78850  Biso   1.000  H
  H756     1.0000 0.96030  0.98720  0.80350  Biso   1.000  H
  H757     1.0000 0.99340  0.98710  0.77360  Biso   1.000  H
  H758     1.0000 0.97340  0.96680  0.48880  Biso   1.000  H
  C726     1.0000 0.92130  0.95980  0.51700  Biso   1.000  C
  H759     1.0000 0.92140  0.93250  0.51740  Biso   1.000  H
  Zn67     1.0000 0.44924  0.41616  0.24300  Biso   1.000  Zn
  Zn68     1.0000 0.33850  0.41485  0.05036  Biso   1.000  Zn
  O265     1.0000 0.36597  0.32651  0.04690  Biso   1.000  O
  O266     1.0000 0.36609  0.37917  0.08280  Biso   1.000  O
  O267     1.0000 0.46029  0.33287  0.22625  Biso   1.000  O
  O268     1.0000 0.44023  0.38568  0.19824  Biso   1.000  O
  O269     1.0000 0.46062  0.21397  0.15120  Biso   1.000  O
  O270     1.0000 0.44130  0.21584  0.09056  Biso   1.000  O
  O271     1.0000 0.41817  0.40117  0.28507  Biso   1.000  O
  O272     1.0000 0.45365  0.35350  0.30986  Biso   1.000  O
  C727     1.0000 0.39898  0.32593  0.10570  Biso   1.000  C
  C728     1.0000 0.41076  0.34565  0.13700  Biso   1.000  C
  H760     1.0000 0.40400  0.37110  0.13960  Biso   1.000  H
  C729     1.0000 0.43282  0.32830  0.16524  Biso   1.000  C
  C730     1.0000 0.44328  0.29066  0.16063  Biso   1.000  C
  H761     1.0000 0.45780  0.27870  0.17930  Biso   1.000  H
  C731     1.0000 0.43252  0.27070  0.12874  Biso   1.000  C
  C732     1.0000 0.41027  0.28826  0.10144  Biso   1.000  C
  H762     1.0000 0.40280  0.27470  0.08000  Biso   1.000  H
  C733     1.0000 0.37503  0.34524  0.07575  Biso   1.000  C
  C734     1.0000 0.44612  0.35016  0.19962  Biso   1.000  C
  C735     1.0000 0.44541  0.23040  0.12386  Biso   1.000  C
  C736     1.0000 0.42600  0.37551  0.31006  Biso   1.000  C
  C737     1.0000 0.39668  0.37290  0.34189  Biso   1.000  C
  C738     1.0000 0.39898  0.34395  0.36810  Biso   1.000  C
  H763     1.0000 0.41890  0.32530  0.36630  Biso   1.000  H
  N133     1.0000 0.35630  0.46810  0.05140  Biso   1.000  N
  C739     1.0000 0.39000  0.48060  0.03350  Biso   1.000  C
  N134     1.0000 0.42870  0.46850  0.23520  Biso   1.000  N
  C740     1.0000 0.40360  0.48090  0.20760  Biso   1.000  C
  C741     1.0000 0.38000  0.46100  0.18140  Biso   1.000  C
  H764     1.0000 0.38010  0.43370  0.18110  Biso   1.000  H
  C742     1.0000 0.35810  0.48050  0.15730  Biso   1.000  C
  H765     1.0000 0.34190  0.46690  0.13990  Biso   1.000  H
  N135     1.0000 0.35140  0.46830  0.05740  Biso   1.000  N
  H766     1.0000 0.28040  0.52570  0.04700  Biso   1.000  H
  H767     1.0000 0.28380  0.48740  0.02440  Biso   1.000  H
  H768     1.0000 0.27710  0.48680  0.06850  Biso   1.000  H
  C743     1.0000 0.38810  0.48060  0.06280  Biso   1.000  C
  C744     1.0000 0.42100  0.46040  0.06770  Biso   1.000  C
  H769     1.0000 0.42060  0.43310  0.06770  Biso   1.000  H
  C745     1.0000 0.45510  0.48020  0.07280  Biso   1.000  C
  H770     1.0000 0.47860  0.46650  0.07520  Biso   1.000  H
  N136     1.0000 0.45320  0.46870  0.22510  Biso   1.000  N
  H771     1.0000 0.40500  0.52570  0.27980  Biso   1.000  H
  H772     1.0000 0.38820  0.48720  0.26500  Biso   1.000  H
  H773     1.0000 0.42160  0.48710  0.29450  Biso   1.000  H
  C746     1.0000 0.47790  0.48060  0.19690  Biso   1.000  C
  C747     1.0000 0.52290  0.48040  0.14630  Biso   1.000  C
  H774     1.0000 0.53860  0.46680  0.12850  Biso   1.000  H
  H775     1.0000 0.29020  0.52570  0.08640  Biso   1.000  H
  H776     1.0000 0.30070  0.48720  0.10620  Biso   1.000  H
  H777     1.0000 0.27980  0.48700  0.06680  Biso   1.000  H
  H778     1.0000 0.47690  0.52570  0.28850  Biso   1.000  H
  H779     1.0000 0.46030  0.48720  0.30350  Biso   1.000  H
  H780     1.0000 0.49340  0.48710  0.27360  Biso   1.000  H
  H781     1.0000 0.47340  0.46680  0.98880  Biso   1.000  H
  C748     1.0000 0.42130  0.45980  0.01700  Biso   1.000  C
  H782     1.0000 0.42140  0.43250  0.01740  Biso   1.000  H
  Zn69     1.0000 0.94924  0.08384  0.25700  Biso   1.000  Zn
  Zn70     1.0000 0.83850  0.08515  0.44964  Biso   1.000  Zn
  O273     1.0000 0.86597  0.17349  0.45310  Biso   1.000  O
  O274     1.0000 0.86609  0.12083  0.41720  Biso   1.000  O
  O275     1.0000 0.96029  0.16713  0.27375  Biso   1.000  O
  O276     1.0000 0.94023  0.11432  0.30176  Biso   1.000  O
  O277     1.0000 0.96062  0.28603  0.34880  Biso   1.000  O
  O278     1.0000 0.94130  0.28416  0.40944  Biso   1.000  O
  O279     1.0000 0.91817  0.09883  0.21493  Biso   1.000  O
  O280     1.0000 0.95365  0.14650  0.19014  Biso   1.000  O
  C749     1.0000 0.89898  0.17407  0.39430  Biso   1.000  C
  C750     1.0000 0.91076  0.15435  0.36300  Biso   1.000  C
  H783     1.0000 0.90400  0.12890  0.36040  Biso   1.000  H
  C751     1.0000 0.93282  0.17170  0.33476  Biso   1.000  C
  C752     1.0000 0.94328  0.20934  0.33937  Biso   1.000  C
  H784     1.0000 0.95780  0.22130  0.32070  Biso   1.000  H
  C753     1.0000 0.93252  0.22930  0.37126  Biso   1.000  C
  C754     1.0000 0.91027  0.21174  0.39856  Biso   1.000  C
  H785     1.0000 0.90280  0.22530  0.42000  Biso   1.000  H
  C755     1.0000 0.87503  0.15476  0.42425  Biso   1.000  C
  C756     1.0000 0.94612  0.14984  0.30038  Biso   1.000  C
  C757     1.0000 0.94541  0.26960  0.37614  Biso   1.000  C
  C758     1.0000 0.92600  0.12449  0.18994  Biso   1.000  C
  C759     1.0000 0.89668  0.12710  0.15811  Biso   1.000  C
  C760     1.0000 0.89898  0.15605  0.13190  Biso   1.000  C
  H786     1.0000 0.91890  0.17470  0.13370  Biso   1.000  H
  N137     1.0000 0.85630  0.03190  0.44860  Biso   1.000  N
  C761     1.0000 0.89000  0.01940  0.46650  Biso   1.000  C
  N138     1.0000 0.92870  0.03150  0.26480  Biso   1.000  N
  C762     1.0000 0.90360  0.01910  0.29240  Biso   1.000  C
  C763     1.0000 0.88000  0.03900  0.31860  Biso   1.000  C
  H787     1.0000 0.88010  0.06630  0.31890  Biso   1.000  H
  C764     1.0000 0.85810  0.01950  0.34270  Biso   1.000  C
  H788     1.0000 0.84190  0.03310  0.36010  Biso   1.000  H
  N139     1.0000 0.85140  0.03170  0.44260  Biso   1.000  N
  H789     1.0000 0.78040  0.97430  0.45300  Biso   1.000  H
  H790     1.0000 0.78380  0.01260  0.47560  Biso   1.000  H
  H791     1.0000 0.77710  0.01320  0.43150  Biso   1.000  H
  C765     1.0000 0.88810  0.01940  0.43720  Biso   1.000  C
  C766     1.0000 0.92100  0.03960  0.43230  Biso   1.000  C
  H792     1.0000 0.92060  0.06690  0.43230  Biso   1.000  H
  C767     1.0000 0.95510  0.01980  0.42720  Biso   1.000  C
  H793     1.0000 0.97860  0.03350  0.42480  Biso   1.000  H
  N140     1.0000 0.95320  0.03130  0.27490  Biso   1.000  N
  H794     1.0000 0.90500  0.97430  0.22020  Biso   1.000  H
  H795     1.0000 0.88820  0.01280  0.23500  Biso   1.000  H
  H796     1.0000 0.92160  0.01290  0.20550  Biso   1.000  H
  C768     1.0000 0.97790  0.01940  0.30310  Biso   1.000  C
  C769     1.0000 0.02290  0.01960  0.35370  Biso   1.000  C
  H797     1.0000 0.03860  0.03320  0.37150  Biso   1.000  H
  H798     1.0000 0.79020  0.97430  0.41360  Biso   1.000  H
  H799     1.0000 0.80070  0.01280  0.39380  Biso   1.000  H
  H800     1.0000 0.77980  0.01300  0.43320  Biso   1.000  H
  H801     1.0000 0.97690  0.97430  0.21150  Biso   1.000  H
  H802     1.0000 0.96030  0.01280  0.19650  Biso   1.000  H
  H803     1.0000 0.99340  0.01290  0.22640  Biso   1.000  H
  H804     1.0000 0.97340  0.03320  0.51120  Biso   1.000  H
  C770     1.0000 0.92130  0.04020  0.48300  Biso   1.000  C
  H805     1.0000 0.92140  0.06750  0.48260  Biso   1.000  H
  Zn71     1.0000 0.44924  0.58384  0.75700  Biso   1.000  Zn
  Zn72     1.0000 0.33850  0.58515  0.94964  Biso   1.000  Zn
  O281     1.0000 0.36597  0.67349  0.95310  Biso   1.000  O
  O282     1.0000 0.36609  0.62083  0.91720  Biso   1.000  O
  O283     1.0000 0.46029  0.66713  0.77375  Biso   1.000  O
  O284     1.0000 0.44023  0.61432  0.80176  Biso   1.000  O
  O285     1.0000 0.46062  0.78603  0.84880  Biso   1.000  O
  O286     1.0000 0.44130  0.78416  0.90944  Biso   1.000  O
  O287     1.0000 0.41817  0.59883  0.71493  Biso   1.000  O
  O288     1.0000 0.45365  0.64650  0.69014  Biso   1.000  O
  C771     1.0000 0.39898  0.67407  0.89430  Biso   1.000  C
  C772     1.0000 0.41076  0.65435  0.86300  Biso   1.000  C
  H806     1.0000 0.40400  0.62890  0.86040  Biso   1.000  H
  C773     1.0000 0.43282  0.67170  0.83476  Biso   1.000  C
  C774     1.0000 0.44328  0.70934  0.83937  Biso   1.000  C
  H807     1.0000 0.45780  0.72130  0.82070  Biso   1.000  H
  C775     1.0000 0.43252  0.72930  0.87126  Biso   1.000  C
  C776     1.0000 0.41027  0.71174  0.89856  Biso   1.000  C
  H808     1.0000 0.40280  0.72530  0.92000  Biso   1.000  H
  C777     1.0000 0.37503  0.65476  0.92425  Biso   1.000  C
  C778     1.0000 0.44612  0.64984  0.80038  Biso   1.000  C
  C779     1.0000 0.44541  0.76960  0.87614  Biso   1.000  C
  C780     1.0000 0.42600  0.62449  0.68994  Biso   1.000  C
  C781     1.0000 0.39668  0.62710  0.65811  Biso   1.000  C
  C782     1.0000 0.39898  0.65605  0.63190  Biso   1.000  C
  H809     1.0000 0.41890  0.67470  0.63370  Biso   1.000  H
  N141     1.0000 0.35630  0.53190  0.94860  Biso   1.000  N
  C783     1.0000 0.39000  0.51940  0.96650  Biso   1.000  C
  N142     1.0000 0.42870  0.53150  0.76480  Biso   1.000  N
  C784     1.0000 0.40360  0.51910  0.79240  Biso   1.000  C
  C785     1.0000 0.38000  0.53900  0.81860  Biso   1.000  C
  H810     1.0000 0.38010  0.56630  0.81890  Biso   1.000  H
  C786     1.0000 0.35810  0.51950  0.84270  Biso   1.000  C
  H811     1.0000 0.34190  0.53310  0.86010  Biso   1.000  H
  N143     1.0000 0.35140  0.53170  0.94260  Biso   1.000  N
  H812     1.0000 0.28040  0.47430  0.95300  Biso   1.000  H
  H813     1.0000 0.28380  0.51260  0.97560  Biso   1.000  H
  H814     1.0000 0.27710  0.51320  0.93150  Biso   1.000  H
  C787     1.0000 0.38810  0.51940  0.93720  Biso   1.000  C
  C788     1.0000 0.42100  0.53960  0.93230  Biso   1.000  C
  H815     1.0000 0.42060  0.56690  0.93230  Biso   1.000  H
  C789     1.0000 0.45510  0.51980  0.92720  Biso   1.000  C
  H816     1.0000 0.47860  0.53350  0.92480  Biso   1.000  H
  N144     1.0000 0.45320  0.53130  0.77490  Biso   1.000  N
  H817     1.0000 0.40500  0.47430  0.72020  Biso   1.000  H
  H818     1.0000 0.38820  0.51280  0.73500  Biso   1.000  H
  H819     1.0000 0.42160  0.51290  0.70550  Biso   1.000  H
  C790     1.0000 0.47790  0.51940  0.80310  Biso   1.000  C
  C791     1.0000 0.52290  0.51960  0.85370  Biso   1.000  C
  H820     1.0000 0.53860  0.53320  0.87150  Biso   1.000  H
  H821     1.0000 0.29020  0.47430  0.91360  Biso   1.000  H
  H822     1.0000 0.30070  0.51280  0.89380  Biso   1.000  H
  H823     1.0000 0.27980  0.51300  0.93320  Biso   1.000  H
  H824     1.0000 0.47690  0.47430  0.71150  Biso   1.000  H
  H825     1.0000 0.46030  0.51280  0.69650  Biso   1.000  H
  H826     1.0000 0.49340  0.51290  0.72640  Biso   1.000  H
  H827     1.0000 0.47340  0.53320  0.01120  Biso   1.000  H
  C792     1.0000 0.42130  0.54020  0.98300  Biso   1.000  C
  H828     1.0000 0.42140  0.56750  0.98260  Biso   1.000  H
  Zn73     1.0000 0.05076  0.08384  0.74300  Biso   1.000  Zn
  Zn74     1.0000 0.16150  0.08515  0.55036  Biso   1.000  Zn
  O289     1.0000 0.13403  0.17349  0.54690  Biso   1.000  O
  O290     1.0000 0.13391  0.12083  0.58280  Biso   1.000  O
  O291     1.0000 0.03971  0.16713  0.72625  Biso   1.000  O
  O292     1.0000 0.05977  0.11432  0.69824  Biso   1.000  O
  O293     1.0000 0.03938  0.28603  0.65120  Biso   1.000  O
  O294     1.0000 0.05870  0.28416  0.59056  Biso   1.000  O
  O295     1.0000 0.08183  0.09883  0.78507  Biso   1.000  O
  O296     1.0000 0.04635  0.14650  0.80986  Biso   1.000  O
  C793     1.0000 0.10102  0.17407  0.60570  Biso   1.000  C
  C794     1.0000 0.08924  0.15435  0.63700  Biso   1.000  C
  H829     1.0000 0.09600  0.12890  0.63960  Biso   1.000  H
  C795     1.0000 0.06718  0.17170  0.66524  Biso   1.000  C
  C796     1.0000 0.05672  0.20934  0.66063  Biso   1.000  C
  H830     1.0000 0.04220  0.22130  0.67930  Biso   1.000  H
  C797     1.0000 0.06748  0.22930  0.62874  Biso   1.000  C
  C798     1.0000 0.08973  0.21174  0.60144  Biso   1.000  C
  H831     1.0000 0.09720  0.22530  0.58000  Biso   1.000  H
  C799     1.0000 0.12497  0.15476  0.57575  Biso   1.000  C
  C800     1.0000 0.05388  0.14984  0.69962  Biso   1.000  C
  C801     1.0000 0.05459  0.26960  0.62386  Biso   1.000  C
  C802     1.0000 0.07400  0.12449  0.81006  Biso   1.000  C
  C803     1.0000 0.10332  0.12710  0.84189  Biso   1.000  C
  C804     1.0000 0.10102  0.15605  0.86810  Biso   1.000  C
  H832     1.0000 0.08110  0.17470  0.86630  Biso   1.000  H
  N145     1.0000 0.14370  0.03190  0.55140  Biso   1.000  N
  C805     1.0000 0.11000  0.01940  0.53350  Biso   1.000  C
  N146     1.0000 0.07130  0.03150  0.73520  Biso   1.000  N
  C806     1.0000 0.09640  0.01910  0.70760  Biso   1.000  C
  C807     1.0000 0.12000  0.03900  0.68140  Biso   1.000  C
  H833     1.0000 0.11990  0.06630  0.68110  Biso   1.000  H
  C808     1.0000 0.14190  0.01950  0.65730  Biso   1.000  C
  H834     1.0000 0.15810  0.03310  0.63990  Biso   1.000  H
  N147     1.0000 0.14860  0.03170  0.55740  Biso   1.000  N
  H835     1.0000 0.21960  0.97430  0.54700  Biso   1.000  H
  H836     1.0000 0.21620  0.01260  0.52440  Biso   1.000  H
  H837     1.0000 0.22290  0.01320  0.56850  Biso   1.000  H
  C809     1.0000 0.11190  0.01940  0.56280  Biso   1.000  C
  C810     1.0000 0.07900  0.03960  0.56770  Biso   1.000  C
  H838     1.0000 0.07940  0.06690  0.56770  Biso   1.000  H
  C811     1.0000 0.04490  0.01980  0.57280  Biso   1.000  C
  H839     1.0000 0.02140  0.03350  0.57520  Biso   1.000  H
  N148     1.0000 0.04680  0.03130  0.72510  Biso   1.000  N
  H840     1.0000 0.09500  0.97430  0.77980  Biso   1.000  H
  H841     1.0000 0.11180  0.01280  0.76500  Biso   1.000  H
  H842     1.0000 0.07840  0.01290  0.79450  Biso   1.000  H
  C812     1.0000 0.02210  0.01940  0.69690  Biso   1.000  C
  C813     1.0000 0.97710  0.01960  0.64630  Biso   1.000  C
  H843     1.0000 0.96140  0.03320  0.62850  Biso   1.000  H
  H844     1.0000 0.20980  0.97430  0.58640  Biso   1.000  H
  H845     1.0000 0.19930  0.01280  0.60620  Biso   1.000  H
  H846     1.0000 0.22020  0.01300  0.56680  Biso   1.000  H
  H847     1.0000 0.02310  0.97430  0.78850  Biso   1.000  H
  H848     1.0000 0.03970  0.01280  0.80350  Biso   1.000  H
  H849     1.0000 0.00660  0.01290  0.77360  Biso   1.000  H
  H850     1.0000 0.02660  0.03320  0.48880  Biso   1.000  H
  C814     1.0000 0.07870  0.04020  0.51700  Biso   1.000  C
  H851     1.0000 0.07860  0.06750  0.51740  Biso   1.000  H
  Zn75     1.0000 0.55076  0.58384  0.24300  Biso   1.000  Zn
  Zn76     1.0000 0.66150  0.58515  0.05036  Biso   1.000  Zn
  O297     1.0000 0.63403  0.67349  0.04690  Biso   1.000  O
  O298     1.0000 0.63391  0.62083  0.08280  Biso   1.000  O
  O299     1.0000 0.53971  0.66713  0.22625  Biso   1.000  O
  O300     1.0000 0.55977  0.61432  0.19824  Biso   1.000  O
  O301     1.0000 0.53938  0.78603  0.15120  Biso   1.000  O
  O302     1.0000 0.55870  0.78416  0.09056  Biso   1.000  O
  O303     1.0000 0.58183  0.59883  0.28507  Biso   1.000  O
  O304     1.0000 0.54635  0.64650  0.30986  Biso   1.000  O
  C815     1.0000 0.60102  0.67407  0.10570  Biso   1.000  C
  C816     1.0000 0.58924  0.65435  0.13700  Biso   1.000  C
  H852     1.0000 0.59600  0.62890  0.13960  Biso   1.000  H
  C817     1.0000 0.56718  0.67170  0.16524  Biso   1.000  C
  C818     1.0000 0.55672  0.70934  0.16063  Biso   1.000  C
  H853     1.0000 0.54220  0.72130  0.17930  Biso   1.000  H
  C819     1.0000 0.56748  0.72930  0.12874  Biso   1.000  C
  C820     1.0000 0.58973  0.71174  0.10144  Biso   1.000  C
  H854     1.0000 0.59720  0.72530  0.08000  Biso   1.000  H
  C821     1.0000 0.62497  0.65476  0.07575  Biso   1.000  C
  C822     1.0000 0.55388  0.64984  0.19962  Biso   1.000  C
  C823     1.0000 0.55459  0.76960  0.12386  Biso   1.000  C
  C824     1.0000 0.57400  0.62449  0.31006  Biso   1.000  C
  C825     1.0000 0.60332  0.62710  0.34189  Biso   1.000  C
  C826     1.0000 0.60102  0.65605  0.36810  Biso   1.000  C
  H855     1.0000 0.58110  0.67470  0.36630  Biso   1.000  H
  N149     1.0000 0.64370  0.53190  0.05140  Biso   1.000  N
  C827     1.0000 0.61000  0.51940  0.03350  Biso   1.000  C
  N150     1.0000 0.57130  0.53150  0.23520  Biso   1.000  N
  C828     1.0000 0.59640  0.51910  0.20760  Biso   1.000  C
  C829     1.0000 0.62000  0.53900  0.18140  Biso   1.000  C
  H856     1.0000 0.61990  0.56630  0.18110  Biso   1.000  H
  C830     1.0000 0.64190  0.51950  0.15730  Biso   1.000  C
  H857     1.0000 0.65810  0.53310  0.13990  Biso   1.000  H
  N151     1.0000 0.64860  0.53170  0.05740  Biso   1.000  N
  H858     1.0000 0.71960  0.47430  0.04700  Biso   1.000  H
  H859     1.0000 0.71620  0.51260  0.02440  Biso   1.000  H
  H860     1.0000 0.72290  0.51320  0.06850  Biso   1.000  H
  C831     1.0000 0.61190  0.51940  0.06280  Biso   1.000  C
  C832     1.0000 0.57900  0.53960  0.06770  Biso   1.000  C
  H861     1.0000 0.57940  0.56690  0.06770  Biso   1.000  H
  C833     1.0000 0.54490  0.51980  0.07280  Biso   1.000  C
  H862     1.0000 0.52140  0.53350  0.07520  Biso   1.000  H
  N152     1.0000 0.54680  0.53130  0.22510  Biso   1.000  N
  H863     1.0000 0.59500  0.47430  0.27980  Biso   1.000  H
  H864     1.0000 0.61180  0.51280  0.26500  Biso   1.000  H
  H865     1.0000 0.57840  0.51290  0.29450  Biso   1.000  H
  C834     1.0000 0.52210  0.51940  0.19690  Biso   1.000  C
  C835     1.0000 0.47710  0.51960  0.14630  Biso   1.000  C
  H866     1.0000 0.46140  0.53320  0.12850  Biso   1.000  H
  H867     1.0000 0.70980  0.47430  0.08640  Biso   1.000  H
  H868     1.0000 0.69930  0.51280  0.10620  Biso   1.000  H
  H869     1.0000 0.72020  0.51300  0.06680  Biso   1.000  H
  H870     1.0000 0.52310  0.47430  0.28850  Biso   1.000  H
  H871     1.0000 0.53970  0.51280  0.30350  Biso   1.000  H
  H872     1.0000 0.50660  0.51290  0.27360  Biso   1.000  H
  H873     1.0000 0.52660  0.53320  0.98880  Biso   1.000  H
  C836     1.0000 0.57870  0.54020  0.01700  Biso   1.000  C
  H874     1.0000 0.57860  0.56750  0.01740  Biso   1.000  H
  Zn77     1.0000 0.05076  0.91616  0.25700  Biso   1.000  Zn
  Zn78     1.0000 0.16150  0.91485  0.44964  Biso   1.000  Zn
  O305     1.0000 0.13403  0.82651  0.45310  Biso   1.000  O
  O306     1.0000 0.13391  0.87917  0.41720  Biso   1.000  O
  O307     1.0000 0.03971  0.83287  0.27375  Biso   1.000  O
  O308     1.0000 0.05977  0.88568  0.30176  Biso   1.000  O
  O309     1.0000 0.03938  0.71397  0.34880  Biso   1.000  O
  O310     1.0000 0.05870  0.71584  0.40944  Biso   1.000  O
  O311     1.0000 0.08183  0.90117  0.21493  Biso   1.000  O
  O312     1.0000 0.04635  0.85350  0.19014  Biso   1.000  O
  C837     1.0000 0.10102  0.82593  0.39430  Biso   1.000  C
  C838     1.0000 0.08924  0.84565  0.36300  Biso   1.000  C
  H875     1.0000 0.09600  0.87110  0.36040  Biso   1.000  H
  C839     1.0000 0.06718  0.82830  0.33476  Biso   1.000  C
  C840     1.0000 0.05672  0.79066  0.33937  Biso   1.000  C
  H876     1.0000 0.04220  0.77870  0.32070  Biso   1.000  H
  C841     1.0000 0.06748  0.77070  0.37126  Biso   1.000  C
  C842     1.0000 0.08973  0.78826  0.39856  Biso   1.000  C
  H877     1.0000 0.09720  0.77470  0.42000  Biso   1.000  H
  C843     1.0000 0.12497  0.84524  0.42425  Biso   1.000  C
  C844     1.0000 0.05388  0.85016  0.30038  Biso   1.000  C
  C845     1.0000 0.05459  0.73040  0.37614  Biso   1.000  C
  C846     1.0000 0.07400  0.87551  0.18994  Biso   1.000  C
  C847     1.0000 0.10332  0.87290  0.15811  Biso   1.000  C
  C848     1.0000 0.10102  0.84395  0.13190  Biso   1.000  C
  H878     1.0000 0.08110  0.82530  0.13370  Biso   1.000  H
  N153     1.0000 0.14370  0.96810  0.44860  Biso   1.000  N
  C849     1.0000 0.11000  0.98060  0.46650  Biso   1.000  C
  N154     1.0000 0.07130  0.96850  0.26480  Biso   1.000  N
  C850     1.0000 0.09640  0.98090  0.29240  Biso   1.000  C
  C851     1.0000 0.12000  0.96100  0.31860  Biso   1.000  C
  H879     1.0000 0.11990  0.93370  0.31890  Biso   1.000  H
  C852     1.0000 0.14190  0.98050  0.34270  Biso   1.000  C
  H880     1.0000 0.15810  0.96690  0.36010  Biso   1.000  H
  N155     1.0000 0.14860  0.96830  0.44260  Biso   1.000  N
  H881     1.0000 0.21960  0.02570  0.45300  Biso   1.000  H
  H882     1.0000 0.21620  0.98740  0.47560  Biso   1.000  H
  H883     1.0000 0.22290  0.98680  0.43150  Biso   1.000  H
  C853     1.0000 0.11190  0.98060  0.43720  Biso   1.000  C
  C854     1.0000 0.07900  0.96040  0.43230  Biso   1.000  C
  H884     1.0000 0.07940  0.93310  0.43230  Biso   1.000  H
  C855     1.0000 0.04490  0.98020  0.42720  Biso   1.000  C
  H885     1.0000 0.02140  0.96650  0.42480  Biso   1.000  H
  N156     1.0000 0.04680  0.96870  0.27490  Biso   1.000  N
  H886     1.0000 0.09500  0.02570  0.22020  Biso   1.000  H
  H887     1.0000 0.11180  0.98720  0.23500  Biso   1.000  H
  H888     1.0000 0.07840  0.98710  0.20550  Biso   1.000  H
  C856     1.0000 0.02210  0.98060  0.30310  Biso   1.000  C
  C857     1.0000 0.97710  0.98040  0.35370  Biso   1.000  C
  H889     1.0000 0.96140  0.96680  0.37150  Biso   1.000  H
  H890     1.0000 0.20980  0.02570  0.41360  Biso   1.000  H
  H891     1.0000 0.19930  0.98720  0.39380  Biso   1.000  H
  H892     1.0000 0.22020  0.98700  0.43320  Biso   1.000  H
  H893     1.0000 0.02310  0.02570  0.21150  Biso   1.000  H
  H894     1.0000 0.03970  0.98720  0.19650  Biso   1.000  H
  H895     1.0000 0.00660  0.98710  0.22640  Biso   1.000  H
  H896     1.0000 0.02660  0.96680  0.51120  Biso   1.000  H
  C858     1.0000 0.07870  0.95980  0.48300  Biso   1.000  C
  H897     1.0000 0.07860  0.93250  0.48260  Biso   1.000  H
  Zn79     1.0000 0.55076  0.41616  0.75700  Biso   1.000  Zn
  Zn80     1.0000 0.66150  0.41485  0.94964  Biso   1.000  Zn
  O313     1.0000 0.63403  0.32651  0.95310  Biso   1.000  O
  O314     1.0000 0.63391  0.37917  0.91720  Biso   1.000  O
  O315     1.0000 0.53971  0.33287  0.77375  Biso   1.000  O
  O316     1.0000 0.55977  0.38568  0.80176  Biso   1.000  O
  O317     1.0000 0.53938  0.21397  0.84880  Biso   1.000  O
  O318     1.0000 0.55870  0.21584  0.90944  Biso   1.000  O
  O319     1.0000 0.58183  0.40117  0.71493  Biso   1.000  O
  O320     1.0000 0.54635  0.35350  0.69014  Biso   1.000  O
  C859     1.0000 0.60102  0.32593  0.89430  Biso   1.000  C
  C860     1.0000 0.58924  0.34565  0.86300  Biso   1.000  C
  H898     1.0000 0.59600  0.37110  0.86040  Biso   1.000  H
  C861     1.0000 0.56718  0.32830  0.83476  Biso   1.000  C
  C862     1.0000 0.55672  0.29066  0.83937  Biso   1.000  C
  H899     1.0000 0.54220  0.27870  0.82070  Biso   1.000  H
  C863     1.0000 0.56748  0.27070  0.87126  Biso   1.000  C
  C864     1.0000 0.58973  0.28826  0.89856  Biso   1.000  C
  H900     1.0000 0.59720  0.27470  0.92000  Biso   1.000  H
  C865     1.0000 0.62497  0.34524  0.92425  Biso   1.000  C
  C866     1.0000 0.55388  0.35016  0.80038  Biso   1.000  C
  C867     1.0000 0.55459  0.23040  0.87614  Biso   1.000  C
  C868     1.0000 0.57400  0.37551  0.68994  Biso   1.000  C
  C869     1.0000 0.60332  0.37290  0.65811  Biso   1.000  C
  C870     1.0000 0.60102  0.34395  0.63190  Biso   1.000  C
  H901     1.0000 0.58110  0.32530  0.63370  Biso   1.000  H
  N157     1.0000 0.64370  0.46810  0.94860  Biso   1.000  N
  C871     1.0000 0.61000  0.48060  0.96650  Biso   1.000  C
  N158     1.0000 0.57130  0.46850  0.76480  Biso   1.000  N
  C872     1.0000 0.59640  0.48090  0.79240  Biso   1.000  C
  C873     1.0000 0.62000  0.46100  0.81860  Biso   1.000  C
  H902     1.0000 0.61990  0.43370  0.81890  Biso   1.000  H
  C874     1.0000 0.64190  0.48050  0.84270  Biso   1.000  C
  H903     1.0000 0.65810  0.46690  0.86010  Biso   1.000  H
  N159     1.0000 0.64860  0.46830  0.94260  Biso   1.000  N
  H904     1.0000 0.71960  0.52570  0.95300  Biso   1.000  H
  H905     1.0000 0.71620  0.48740  0.97560  Biso   1.000  H
  H906     1.0000 0.72290  0.48680  0.93150  Biso   1.000  H
  C875     1.0000 0.61190  0.48060  0.93720  Biso   1.000  C
  C876     1.0000 0.57900  0.46040  0.93230  Biso   1.000  C
  H907     1.0000 0.57940  0.43310  0.93230  Biso   1.000  H
  C877     1.0000 0.54490  0.48020  0.92720  Biso   1.000  C
  H908     1.0000 0.52140  0.46650  0.92480  Biso   1.000  H
  N160     1.0000 0.54680  0.46870  0.77490  Biso   1.000  N
  H909     1.0000 0.59500  0.52570  0.72020  Biso   1.000  H
  H910     1.0000 0.61180  0.48720  0.73500  Biso   1.000  H
  H911     1.0000 0.57840  0.48710  0.70550  Biso   1.000  H
  C878     1.0000 0.52210  0.48060  0.80310  Biso   1.000  C
  C879     1.0000 0.47710  0.48040  0.85370  Biso   1.000  C
  H912     1.0000 0.46140  0.46680  0.87150  Biso   1.000  H
  H913     1.0000 0.70980  0.52570  0.91360  Biso   1.000  H
  H914     1.0000 0.69930  0.48720  0.89380  Biso   1.000  H
  H915     1.0000 0.72020  0.48700  0.93320  Biso   1.000  H
  H916     1.0000 0.52310  0.52570  0.71150  Biso   1.000  H
  H917     1.0000 0.53970  0.48720  0.69650  Biso   1.000  H
  H918     1.0000 0.50660  0.48710  0.72640  Biso   1.000  H
  H919     1.0000 0.52660  0.46680  0.01120  Biso   1.000  H
  C880     1.0000 0.57870  0.45980  0.98300  Biso   1.000  C
  H920     1.0000 0.57860  0.43250  0.98260  Biso   1.000  H
  Zn81     1.0000 0.74300  0.94924  0.91616  Biso   1.000  Zn
  Zn82     1.0000 0.55036  0.83850  0.91485  Biso   1.000  Zn
  O321     1.0000 0.54690  0.86597  0.82651  Biso   1.000  O
  O322     1.0000 0.58280  0.86609  0.87917  Biso   1.000  O
  O323     1.0000 0.72625  0.96029  0.83287  Biso   1.000  O
  O324     1.0000 0.69824  0.94023  0.88568  Biso   1.000  O
  O325     1.0000 0.65120  0.96062  0.71397  Biso   1.000  O
  O326     1.0000 0.59056  0.94130  0.71584  Biso   1.000  O
  O327     1.0000 0.78507  0.91817  0.90117  Biso   1.000  O
  O328     1.0000 0.80986  0.95365  0.85350  Biso   1.000  O
  C881     1.0000 0.60570  0.89898  0.82593  Biso   1.000  C
  C882     1.0000 0.63700  0.91076  0.84565  Biso   1.000  C
  H921     1.0000 0.63960  0.90400  0.87110  Biso   1.000  H
  C883     1.0000 0.66524  0.93282  0.82830  Biso   1.000  C
  C884     1.0000 0.66063  0.94328  0.79066  Biso   1.000  C
  H922     1.0000 0.67930  0.95780  0.77870  Biso   1.000  H
  C885     1.0000 0.62874  0.93252  0.77070  Biso   1.000  C
  C886     1.0000 0.60144  0.91027  0.78826  Biso   1.000  C
  H923     1.0000 0.58000  0.90280  0.77470  Biso   1.000  H
  C887     1.0000 0.57575  0.87503  0.84524  Biso   1.000  C
  C888     1.0000 0.69962  0.94612  0.85016  Biso   1.000  C
  C889     1.0000 0.62386  0.94541  0.73040  Biso   1.000  C
  C890     1.0000 0.81006  0.92600  0.87551  Biso   1.000  C
  C891     1.0000 0.84189  0.89668  0.87290  Biso   1.000  C
  C892     1.0000 0.86810  0.89898  0.84395  Biso   1.000  C
  H924     1.0000 0.86630  0.91890  0.82530  Biso   1.000  H
  N161     1.0000 0.55140  0.85630  0.96810  Biso   1.000  N
  C893     1.0000 0.53350  0.89000  0.98060  Biso   1.000  C
  N162     1.0000 0.73520  0.92870  0.96850  Biso   1.000  N
  C894     1.0000 0.70760  0.90360  0.98090  Biso   1.000  C
  C895     1.0000 0.68140  0.88000  0.96100  Biso   1.000  C
  H925     1.0000 0.68110  0.88010  0.93370  Biso   1.000  H
  C896     1.0000 0.65730  0.85810  0.98050  Biso   1.000  C
  H926     1.0000 0.63990  0.84190  0.96690  Biso   1.000  H
  N163     1.0000 0.55740  0.85140  0.96830  Biso   1.000  N
  H927     1.0000 0.54700  0.78040  0.02570  Biso   1.000  H
  H928     1.0000 0.52440  0.78380  0.98740  Biso   1.000  H
  H929     1.0000 0.56850  0.77710  0.98680  Biso   1.000  H
  C897     1.0000 0.56280  0.88810  0.98060  Biso   1.000  C
  C898     1.0000 0.56770  0.92100  0.96040  Biso   1.000  C
  H930     1.0000 0.56770  0.92060  0.93310  Biso   1.000  H
  C899     1.0000 0.57280  0.95510  0.98020  Biso   1.000  C
  H931     1.0000 0.57520  0.97860  0.96650  Biso   1.000  H
  N164     1.0000 0.72510  0.95320  0.96870  Biso   1.000  N
  H932     1.0000 0.77980  0.90500  0.02570  Biso   1.000  H
  H933     1.0000 0.76500  0.88820  0.98720  Biso   1.000  H
  H934     1.0000 0.79450  0.92160  0.98710  Biso   1.000  H
  C900     1.0000 0.69690  0.97790  0.98060  Biso   1.000  C
  C901     1.0000 0.64630  0.02290  0.98040  Biso   1.000  C
  H935     1.0000 0.62850  0.03860  0.96680  Biso   1.000  H
  H936     1.0000 0.58640  0.79020  0.02570  Biso   1.000  H
  H937     1.0000 0.60620  0.80070  0.98720  Biso   1.000  H
  H938     1.0000 0.56680  0.77980  0.98700  Biso   1.000  H
  H939     1.0000 0.78850  0.97690  0.02570  Biso   1.000  H
  H940     1.0000 0.80350  0.96030  0.98720  Biso   1.000  H
  H941     1.0000 0.77360  0.99340  0.98710  Biso   1.000  H
  H942     1.0000 0.48880  0.97340  0.96680  Biso   1.000  H
  C902     1.0000 0.51700  0.92130  0.95980  Biso   1.000  C
  H943     1.0000 0.51740  0.92140  0.93250  Biso   1.000  H
  Zn83     1.0000 0.24300  0.44924  0.41616  Biso   1.000  Zn
  Zn84     1.0000 0.05036  0.33850  0.41485  Biso   1.000  Zn
  O329     1.0000 0.04690  0.36597  0.32651  Biso   1.000  O
  O330     1.0000 0.08280  0.36609  0.37917  Biso   1.000  O
  O331     1.0000 0.22625  0.46029  0.33287  Biso   1.000  O
  O332     1.0000 0.19824  0.44023  0.38568  Biso   1.000  O
  O333     1.0000 0.15120  0.46062  0.21397  Biso   1.000  O
  O334     1.0000 0.09056  0.44130  0.21584  Biso   1.000  O
  O335     1.0000 0.28507  0.41817  0.40117  Biso   1.000  O
  O336     1.0000 0.30986  0.45365  0.35350  Biso   1.000  O
  C903     1.0000 0.10570  0.39898  0.32593  Biso   1.000  C
  C904     1.0000 0.13700  0.41076  0.34565  Biso   1.000  C
  H944     1.0000 0.13960  0.40400  0.37110  Biso   1.000  H
  C905     1.0000 0.16524  0.43282  0.32830  Biso   1.000  C
  C906     1.0000 0.16063  0.44328  0.29066  Biso   1.000  C
  H945     1.0000 0.17930  0.45780  0.27870  Biso   1.000  H
  C907     1.0000 0.12874  0.43252  0.27070  Biso   1.000  C
  C908     1.0000 0.10144  0.41027  0.28826  Biso   1.000  C
  H946     1.0000 0.08000  0.40280  0.27470  Biso   1.000  H
  C909     1.0000 0.07575  0.37503  0.34524  Biso   1.000  C
  C910     1.0000 0.19962  0.44612  0.35016  Biso   1.000  C
  C911     1.0000 0.12386  0.44541  0.23040  Biso   1.000  C
  C912     1.0000 0.31006  0.42600  0.37551  Biso   1.000  C
  C913     1.0000 0.34189  0.39668  0.37290  Biso   1.000  C
  C914     1.0000 0.36810  0.39898  0.34395  Biso   1.000  C
  H947     1.0000 0.36630  0.41890  0.32530  Biso   1.000  H
  N165     1.0000 0.05140  0.35630  0.46810  Biso   1.000  N
  C915     1.0000 0.03350  0.39000  0.48060  Biso   1.000  C
  N166     1.0000 0.23520  0.42870  0.46850  Biso   1.000  N
  C916     1.0000 0.20760  0.40360  0.48090  Biso   1.000  C
  C917     1.0000 0.18140  0.38000  0.46100  Biso   1.000  C
  H948     1.0000 0.18110  0.38010  0.43370  Biso   1.000  H
  C918     1.0000 0.15730  0.35810  0.48050  Biso   1.000  C
  H949     1.0000 0.13990  0.34190  0.46690  Biso   1.000  H
  N167     1.0000 0.05740  0.35140  0.46830  Biso   1.000  N
  H950     1.0000 0.04700  0.28040  0.52570  Biso   1.000  H
  H951     1.0000 0.02440  0.28380  0.48740  Biso   1.000  H
  H952     1.0000 0.06850  0.27710  0.48680  Biso   1.000  H
  C919     1.0000 0.06280  0.38810  0.48060  Biso   1.000  C
  C920     1.0000 0.06770  0.42100  0.46040  Biso   1.000  C
  H953     1.0000 0.06770  0.42060  0.43310  Biso   1.000  H
  C921     1.0000 0.07280  0.45510  0.48020  Biso   1.000  C
  H954     1.0000 0.07520  0.47860  0.46650  Biso   1.000  H
  N168     1.0000 0.22510  0.45320  0.46870  Biso   1.000  N
  H955     1.0000 0.27980  0.40500  0.52570  Biso   1.000  H
  H956     1.0000 0.26500  0.38820  0.48720  Biso   1.000  H
  H957     1.0000 0.29450  0.42160  0.48710  Biso   1.000  H
  C922     1.0000 0.19690  0.47790  0.48060  Biso   1.000  C
  C923     1.0000 0.14630  0.52290  0.48040  Biso   1.000  C
  H958     1.0000 0.12850  0.53860  0.46680  Biso   1.000  H
  H959     1.0000 0.08640  0.29020  0.52570  Biso   1.000  H
  H960     1.0000 0.10620  0.30070  0.48720  Biso   1.000  H
  H961     1.0000 0.06680  0.27980  0.48700  Biso   1.000  H
  H962     1.0000 0.28850  0.47690  0.52570  Biso   1.000  H
  H963     1.0000 0.30350  0.46030  0.48720  Biso   1.000  H
  H964     1.0000 0.27360  0.49340  0.48710  Biso   1.000  H
  H965     1.0000 0.98880  0.47340  0.46680  Biso   1.000  H
  C924     1.0000 0.01700  0.42130  0.45980  Biso   1.000  C
  H966     1.0000 0.01740  0.42140  0.43250  Biso   1.000  H
  Zn85     1.0000 0.25700  0.94924  0.08384  Biso   1.000  Zn
  Zn86     1.0000 0.44964  0.83850  0.08515  Biso   1.000  Zn
  O337     1.0000 0.45310  0.86597  0.17349  Biso   1.000  O
  O338     1.0000 0.41720  0.86609  0.12083  Biso   1.000  O
  O339     1.0000 0.27375  0.96029  0.16713  Biso   1.000  O
  O340     1.0000 0.30176  0.94023  0.11432  Biso   1.000  O
  O341     1.0000 0.34880  0.96062  0.28603  Biso   1.000  O
  O342     1.0000 0.40944  0.94130  0.28416  Biso   1.000  O
  O343     1.0000 0.21493  0.91817  0.09883  Biso   1.000  O
  O344     1.0000 0.19014  0.95365  0.14650  Biso   1.000  O
  C925     1.0000 0.39430  0.89898  0.17407  Biso   1.000  C
  C926     1.0000 0.36300  0.91076  0.15435  Biso   1.000  C
  H967     1.0000 0.36040  0.90400  0.12890  Biso   1.000  H
  C927     1.0000 0.33476  0.93282  0.17170  Biso   1.000  C
  C928     1.0000 0.33937  0.94328  0.20934  Biso   1.000  C
  H968     1.0000 0.32070  0.95780  0.22130  Biso   1.000  H
  C929     1.0000 0.37126  0.93252  0.22930  Biso   1.000  C
  C930     1.0000 0.39856  0.91027  0.21174  Biso   1.000  C
  H969     1.0000 0.42000  0.90280  0.22530  Biso   1.000  H
  C931     1.0000 0.42425  0.87503  0.15476  Biso   1.000  C
  C932     1.0000 0.30038  0.94612  0.14984  Biso   1.000  C
  C933     1.0000 0.37614  0.94541  0.26960  Biso   1.000  C
  C934     1.0000 0.18994  0.92600  0.12449  Biso   1.000  C
  C935     1.0000 0.15811  0.89668  0.12710  Biso   1.000  C
  C936     1.0000 0.13190  0.89898  0.15605  Biso   1.000  C
  H970     1.0000 0.13370  0.91890  0.17470  Biso   1.000  H
  N169     1.0000 0.44860  0.85630  0.03190  Biso   1.000  N
  C937     1.0000 0.46650  0.89000  0.01940  Biso   1.000  C
  N170     1.0000 0.26480  0.92870  0.03150  Biso   1.000  N
  C938     1.0000 0.29240  0.90360  0.01910  Biso   1.000  C
  C939     1.0000 0.31860  0.88000  0.03900  Biso   1.000  C
  H971     1.0000 0.31890  0.88010  0.06630  Biso   1.000  H
  C940     1.0000 0.34270  0.85810  0.01950  Biso   1.000  C
  H972     1.0000 0.36010  0.84190  0.03310  Biso   1.000  H
  N171     1.0000 0.44260  0.85140  0.03170  Biso   1.000  N
  H973     1.0000 0.45300  0.78040  0.97430  Biso   1.000  H
  H974     1.0000 0.47560  0.78380  0.01260  Biso   1.000  H
  H975     1.0000 0.43150  0.77710  0.01320  Biso   1.000  H
  C941     1.0000 0.43720  0.88810  0.01940  Biso   1.000  C
  C942     1.0000 0.43230  0.92100  0.03960  Biso   1.000  C
  H976     1.0000 0.43230  0.92060  0.06690  Biso   1.000  H
  C943     1.0000 0.42720  0.95510  0.01980  Biso   1.000  C
  H977     1.0000 0.42480  0.97860  0.03350  Biso   1.000  H
  N172     1.0000 0.27490  0.95320  0.03130  Biso   1.000  N
  H978     1.0000 0.22020  0.90500  0.97430  Biso   1.000  H
  H979     1.0000 0.23500  0.88820  0.01280  Biso   1.000  H
  H980     1.0000 0.20550  0.92160  0.01290  Biso   1.000  H
  C944     1.0000 0.30310  0.97790  0.01940  Biso   1.000  C
  C945     1.0000 0.35370  0.02290  0.01960  Biso   1.000  C
  H981     1.0000 0.37150  0.03860  0.03320  Biso   1.000  H
  H982     1.0000 0.41360  0.79020  0.97430  Biso   1.000  H
  H983     1.0000 0.39380  0.80070  0.01280  Biso   1.000  H
  H984     1.0000 0.43320  0.77980  0.01300  Biso   1.000  H
  H985     1.0000 0.21150  0.97690  0.97430  Biso   1.000  H
  H986     1.0000 0.19650  0.96030  0.01280  Biso   1.000  H
  H987     1.0000 0.22640  0.99340  0.01290  Biso   1.000  H
  H988     1.0000 0.51120  0.97340  0.03320  Biso   1.000  H
  C946     1.0000 0.48300  0.92130  0.04020  Biso   1.000  C
  H989     1.0000 0.48260  0.92140  0.06750  Biso   1.000  H
  Zn87     1.0000 0.75700  0.44924  0.58384  Biso   1.000  Zn
  Zn88     1.0000 0.94964  0.33850  0.58515  Biso   1.000  Zn
  O345     1.0000 0.95310  0.36597  0.67349  Biso   1.000  O
  O346     1.0000 0.91720  0.36609  0.62083  Biso   1.000  O
  O347     1.0000 0.77375  0.46029  0.66713  Biso   1.000  O
  O348     1.0000 0.80176  0.44023  0.61432  Biso   1.000  O
  O349     1.0000 0.84880  0.46062  0.78603  Biso   1.000  O
  O350     1.0000 0.90944  0.44130  0.78416  Biso   1.000  O
  O351     1.0000 0.71493  0.41817  0.59883  Biso   1.000  O
  O352     1.0000 0.69014  0.45365  0.64650  Biso   1.000  O
  C947     1.0000 0.89430  0.39898  0.67407  Biso   1.000  C
  C948     1.0000 0.86300  0.41076  0.65435  Biso   1.000  C
  H990     1.0000 0.86040  0.40400  0.62890  Biso   1.000  H
  C949     1.0000 0.83476  0.43282  0.67170  Biso   1.000  C
  C950     1.0000 0.83937  0.44328  0.70934  Biso   1.000  C
  H991     1.0000 0.82070  0.45780  0.72130  Biso   1.000  H
  C951     1.0000 0.87126  0.43252  0.72930  Biso   1.000  C
  C952     1.0000 0.89856  0.41027  0.71174  Biso   1.000  C
  H992     1.0000 0.92000  0.40280  0.72530  Biso   1.000  H
  C953     1.0000 0.92425  0.37503  0.65476  Biso   1.000  C
  C954     1.0000 0.80038  0.44612  0.64984  Biso   1.000  C
  C955     1.0000 0.87614  0.44541  0.76960  Biso   1.000  C
  C956     1.0000 0.68994  0.42600  0.62449  Biso   1.000  C
  C957     1.0000 0.65811  0.39668  0.62710  Biso   1.000  C
  C958     1.0000 0.63190  0.39898  0.65605  Biso   1.000  C
  H993     1.0000 0.63370  0.41890  0.67470  Biso   1.000  H
  N173     1.0000 0.94860  0.35630  0.53190  Biso   1.000  N
  C959     1.0000 0.96650  0.39000  0.51940  Biso   1.000  C
  N174     1.0000 0.76480  0.42870  0.53150  Biso   1.000  N
  C960     1.0000 0.79240  0.40360  0.51910  Biso   1.000  C
  C961     1.0000 0.81860  0.38000  0.53900  Biso   1.000  C
  H994     1.0000 0.81890  0.38010  0.56630  Biso   1.000  H
  C962     1.0000 0.84270  0.35810  0.51950  Biso   1.000  C
  H995     1.0000 0.86010  0.34190  0.53310  Biso   1.000  H
  N175     1.0000 0.94260  0.35140  0.53170  Biso   1.000  N
  H996     1.0000 0.95300  0.28040  0.47430  Biso   1.000  H
  H997     1.0000 0.97560  0.28380  0.51260  Biso   1.000  H
  H998     1.0000 0.93150  0.27710  0.51320  Biso   1.000  H
  C963     1.0000 0.93720  0.38810  0.51940  Biso   1.000  C
  C964     1.0000 0.93230  0.42100  0.53960  Biso   1.000  C
  H999     1.0000 0.93230  0.42060  0.56690  Biso   1.000  H
  C965     1.0000 0.92720  0.45510  0.51980  Biso   1.000  C
  H1000    1.0000 0.92480  0.47860  0.53350  Biso   1.000  H
  N176     1.0000 0.77490  0.45320  0.53130  Biso   1.000  N
  H1001    1.0000 0.72020  0.40500  0.47430  Biso   1.000  H
  H1002    1.0000 0.73500  0.38820  0.51280  Biso   1.000  H
  H1003    1.0000 0.70550  0.42160  0.51290  Biso   1.000  H
  C966     1.0000 0.80310  0.47790  0.51940  Biso   1.000  C
  C967     1.0000 0.85370  0.52290  0.51960  Biso   1.000  C
  H1004    1.0000 0.87150  0.53860  0.53320  Biso   1.000  H
  H1005    1.0000 0.91360  0.29020  0.47430  Biso   1.000  H
  H1006    1.0000 0.89380  0.30070  0.51280  Biso   1.000  H
  H1007    1.0000 0.93320  0.27980  0.51300  Biso   1.000  H
  H1008    1.0000 0.71150  0.47690  0.47430  Biso   1.000  H
  H1009    1.0000 0.69650  0.46030  0.51280  Biso   1.000  H
  H1010    1.0000 0.72640  0.49340  0.51290  Biso   1.000  H
  H1011    1.0000 0.01120  0.47340  0.53320  Biso   1.000  H
  C968     1.0000 0.98300  0.42130  0.54020  Biso   1.000  C
  H1012    1.0000 0.98260  0.42140  0.56750  Biso   1.000  H
  Zn89     1.0000 0.74300  0.05076  0.08384  Biso   1.000  Zn
  Zn90     1.0000 0.55036  0.16150  0.08515  Biso   1.000  Zn
  O353     1.0000 0.54690  0.13403  0.17349  Biso   1.000  O
  O354     1.0000 0.58280  0.13391  0.12083  Biso   1.000  O
  O355     1.0000 0.72625  0.03971  0.16713  Biso   1.000  O
  O356     1.0000 0.69824  0.05977  0.11432  Biso   1.000  O
  O357     1.0000 0.65120  0.03938  0.28603  Biso   1.000  O
  O358     1.0000 0.59056  0.05870  0.28416  Biso   1.000  O
  O359     1.0000 0.78507  0.08183  0.09883  Biso   1.000  O
  O360     1.0000 0.80986  0.04635  0.14650  Biso   1.000  O
  C969     1.0000 0.60570  0.10102  0.17407  Biso   1.000  C
  C970     1.0000 0.63700  0.08924  0.15435  Biso   1.000  C
  H1013    1.0000 0.63960  0.09600  0.12890  Biso   1.000  H
  C971     1.0000 0.66524  0.06718  0.17170  Biso   1.000  C
  C972     1.0000 0.66063  0.05672  0.20934  Biso   1.000  C
  H1014    1.0000 0.67930  0.04220  0.22130  Biso   1.000  H
  C973     1.0000 0.62874  0.06748  0.22930  Biso   1.000  C
  C974     1.0000 0.60144  0.08973  0.21174  Biso   1.000  C
  H1015    1.0000 0.58000  0.09720  0.22530  Biso   1.000  H
  C975     1.0000 0.57575  0.12497  0.15476  Biso   1.000  C
  C976     1.0000 0.69962  0.05388  0.14984  Biso   1.000  C
  C977     1.0000 0.62386  0.05459  0.26960  Biso   1.000  C
  C978     1.0000 0.81006  0.07400  0.12449  Biso   1.000  C
  C979     1.0000 0.84189  0.10332  0.12710  Biso   1.000  C
  C980     1.0000 0.86810  0.10102  0.15605  Biso   1.000  C
  H1016    1.0000 0.86630  0.08110  0.17470  Biso   1.000  H
  N177     1.0000 0.55140  0.14370  0.03190  Biso   1.000  N
  C981     1.0000 0.53350  0.11000  0.01940  Biso   1.000  C
  N178     1.0000 0.73520  0.07130  0.03150  Biso   1.000  N
  C982     1.0000 0.70760  0.09640  0.01910  Biso   1.000  C
  C983     1.0000 0.68140  0.12000  0.03900  Biso   1.000  C
  H1017    1.0000 0.68110  0.11990  0.06630  Biso   1.000  H
  C984     1.0000 0.65730  0.14190  0.01950  Biso   1.000  C
  H1018    1.0000 0.63990  0.15810  0.03310  Biso   1.000  H
  N179     1.0000 0.55740  0.14860  0.03170  Biso   1.000  N
  H1019    1.0000 0.54700  0.21960  0.97430  Biso   1.000  H
  H1020    1.0000 0.52440  0.21620  0.01260  Biso   1.000  H
  H1021    1.0000 0.56850  0.22290  0.01320  Biso   1.000  H
  C985     1.0000 0.56280  0.11190  0.01940  Biso   1.000  C
  C986     1.0000 0.56770  0.07900  0.03960  Biso   1.000  C
  H1022    1.0000 0.56770  0.07940  0.06690  Biso   1.000  H
  C987     1.0000 0.57280  0.04490  0.01980  Biso   1.000  C
  H1023    1.0000 0.57520  0.02140  0.03350  Biso   1.000  H
  N180     1.0000 0.72510  0.04680  0.03130  Biso   1.000  N
  H1024    1.0000 0.77980  0.09500  0.97430  Biso   1.000  H
  H1025    1.0000 0.76500  0.11180  0.01280  Biso   1.000  H
  H1026    1.0000 0.79450  0.07840  0.01290  Biso   1.000  H
  C988     1.0000 0.69690  0.02210  0.01940  Biso   1.000  C
  C989     1.0000 0.64630  0.97710  0.01960  Biso   1.000  C
  H1027    1.0000 0.62850  0.96140  0.03320  Biso   1.000  H
  H1028    1.0000 0.58640  0.20980  0.97430  Biso   1.000  H
  H1029    1.0000 0.60620  0.19930  0.01280  Biso   1.000  H
  H1030    1.0000 0.56680  0.22020  0.01300  Biso   1.000  H
  H1031    1.0000 0.78850  0.02310  0.97430  Biso   1.000  H
  H1032    1.0000 0.80350  0.03970  0.01280  Biso   1.000  H
  H1033    1.0000 0.77360  0.00660  0.01290  Biso   1.000  H
  H1034    1.0000 0.48880  0.02660  0.03320  Biso   1.000  H
  C990     1.0000 0.51700  0.07870  0.04020  Biso   1.000  C
  H1035    1.0000 0.51740  0.07860  0.06750  Biso   1.000  H
  Zn91     1.0000 0.24300  0.55076  0.58384  Biso   1.000  Zn
  Zn92     1.0000 0.05036  0.66150  0.58515  Biso   1.000  Zn
  O361     1.0000 0.04690  0.63403  0.67349  Biso   1.000  O
  O362     1.0000 0.08280  0.63391  0.62083  Biso   1.000  O
  O363     1.0000 0.22625  0.53971  0.66713  Biso   1.000  O
  O364     1.0000 0.19824  0.55977  0.61432  Biso   1.000  O
  O365     1.0000 0.15120  0.53938  0.78603  Biso   1.000  O
  O366     1.0000 0.09056  0.55870  0.78416  Biso   1.000  O
  O367     1.0000 0.28507  0.58183  0.59883  Biso   1.000  O
  O368     1.0000 0.30986  0.54635  0.64650  Biso   1.000  O
  C991     1.0000 0.10570  0.60102  0.67407  Biso   1.000  C
  C992     1.0000 0.13700  0.58924  0.65435  Biso   1.000  C
  H1036    1.0000 0.13960  0.59600  0.62890  Biso   1.000  H
  C993     1.0000 0.16524  0.56718  0.67170  Biso   1.000  C
  C994     1.0000 0.16063  0.55672  0.70934  Biso   1.000  C
  H1037    1.0000 0.17930  0.54220  0.72130  Biso   1.000  H
  C995     1.0000 0.12874  0.56748  0.72930  Biso   1.000  C
  C996     1.0000 0.10144  0.58973  0.71174  Biso   1.000  C
  H1038    1.0000 0.08000  0.59720  0.72530  Biso   1.000  H
  C997     1.0000 0.07575  0.62497  0.65476  Biso   1.000  C
  C998     1.0000 0.19962  0.55388  0.64984  Biso   1.000  C
  C999     1.0000 0.12386  0.55459  0.76960  Biso   1.000  C
  C1000    1.0000 0.31006  0.57400  0.62449  Biso   1.000  C
  C1001    1.0000 0.34189  0.60332  0.62710  Biso   1.000  C
  C1002    1.0000 0.36810  0.60102  0.65605  Biso   1.000  C
  H1039    1.0000 0.36630  0.58110  0.67470  Biso   1.000  H
  N181     1.0000 0.05140  0.64370  0.53190  Biso   1.000  N
  C1003    1.0000 0.03350  0.61000  0.51940  Biso   1.000  C
  N182     1.0000 0.23520  0.57130  0.53150  Biso   1.000  N
  C1004    1.0000 0.20760  0.59640  0.51910  Biso   1.000  C
  C1005    1.0000 0.18140  0.62000  0.53900  Biso   1.000  C
  H1040    1.0000 0.18110  0.61990  0.56630  Biso   1.000  H
  C1006    1.0000 0.15730  0.64190  0.51950  Biso   1.000  C
  H1041    1.0000 0.13990  0.65810  0.53310  Biso   1.000  H
  N183     1.0000 0.05740  0.64860  0.53170  Biso   1.000  N
  H1042    1.0000 0.04700  0.71960  0.47430  Biso   1.000  H
  H1043    1.0000 0.02440  0.71620  0.51260  Biso   1.000  H
  H1044    1.0000 0.06850  0.72290  0.51320  Biso   1.000  H
  C1007    1.0000 0.06280  0.61190  0.51940  Biso   1.000  C
  C1008    1.0000 0.06770  0.57900  0.53960  Biso   1.000  C
  H1045    1.0000 0.06770  0.57940  0.56690  Biso   1.000  H
  C1009    1.0000 0.07280  0.54490  0.51980  Biso   1.000  C
  H1046    1.0000 0.07520  0.52140  0.53350  Biso   1.000  H
  N184     1.0000 0.22510  0.54680  0.53130  Biso   1.000  N
  H1047    1.0000 0.27980  0.59500  0.47430  Biso   1.000  H
  H1048    1.0000 0.26500  0.61180  0.51280  Biso   1.000  H
  H1049    1.0000 0.29450  0.57840  0.51290  Biso   1.000  H
  C1010    1.0000 0.19690  0.52210  0.51940  Biso   1.000  C
  C1011    1.0000 0.14630  0.47710  0.51960  Biso   1.000  C
  H1050    1.0000 0.12850  0.46140  0.53320  Biso   1.000  H
  H1051    1.0000 0.08640  0.70980  0.47430  Biso   1.000  H
  H1052    1.0000 0.10620  0.69930  0.51280  Biso   1.000  H
  H1053    1.0000 0.06680  0.72020  0.51300  Biso   1.000  H
  H1054    1.0000 0.28850  0.52310  0.47430  Biso   1.000  H
  H1055    1.0000 0.30350  0.53970  0.51280  Biso   1.000  H
  H1056    1.0000 0.27360  0.50660  0.51290  Biso   1.000  H
  H1057    1.0000 0.98880  0.52660  0.53320  Biso   1.000  H
  C1012    1.0000 0.01700  0.57870  0.54020  Biso   1.000  C
  H1058    1.0000 0.01740  0.57860  0.56750  Biso   1.000  H
  Zn93     1.0000 0.25700  0.05076  0.91616  Biso   1.000  Zn
  Zn94     1.0000 0.44964  0.16150  0.91485  Biso   1.000  Zn
  O369     1.0000 0.45310  0.13403  0.82651  Biso   1.000  O
  O370     1.0000 0.41720  0.13391  0.87917  Biso   1.000  O
  O371     1.0000 0.27375  0.03971  0.83287  Biso   1.000  O
  O372     1.0000 0.30176  0.05977  0.88568  Biso   1.000  O
  O373     1.0000 0.34880  0.03938  0.71397  Biso   1.000  O
  O374     1.0000 0.40944  0.05870  0.71584  Biso   1.000  O
  O375     1.0000 0.21493  0.08183  0.90117  Biso   1.000  O
  O376     1.0000 0.19014  0.04635  0.85350  Biso   1.000  O
  C1013    1.0000 0.39430  0.10102  0.82593  Biso   1.000  C
  C1014    1.0000 0.36300  0.08924  0.84565  Biso   1.000  C
  H1059    1.0000 0.36040  0.09600  0.87110  Biso   1.000  H
  C1015    1.0000 0.33476  0.06718  0.82830  Biso   1.000  C
  C1016    1.0000 0.33937  0.05672  0.79066  Biso   1.000  C
  H1060    1.0000 0.32070  0.04220  0.77870  Biso   1.000  H
  C1017    1.0000 0.37126  0.06748  0.77070  Biso   1.000  C
  C1018    1.0000 0.39856  0.08973  0.78826  Biso   1.000  C
  H1061    1.0000 0.42000  0.09720  0.77470  Biso   1.000  H
  C1019    1.0000 0.42425  0.12497  0.84524  Biso   1.000  C
  C1020    1.0000 0.30038  0.05388  0.85016  Biso   1.000  C
  C1021    1.0000 0.37614  0.05459  0.73040  Biso   1.000  C
  C1022    1.0000 0.18994  0.07400  0.87551  Biso   1.000  C
  C1023    1.0000 0.15811  0.10332  0.87290  Biso   1.000  C
  C1024    1.0000 0.13190  0.10102  0.84395  Biso   1.000  C
  H1062    1.0000 0.13370  0.08110  0.82530  Biso   1.000  H
  N185     1.0000 0.44860  0.14370  0.96810  Biso   1.000  N
  C1025    1.0000 0.46650  0.11000  0.98060  Biso   1.000  C
  N186     1.0000 0.26480  0.07130  0.96850  Biso   1.000  N
  C1026    1.0000 0.29240  0.09640  0.98090  Biso   1.000  C
  C1027    1.0000 0.31860  0.12000  0.96100  Biso   1.000  C
  H1063    1.0000 0.31890  0.11990  0.93370  Biso   1.000  H
  C1028    1.0000 0.34270  0.14190  0.98050  Biso   1.000  C
  H1064    1.0000 0.36010  0.15810  0.96690  Biso   1.000  H
  N187     1.0000 0.44260  0.14860  0.96830  Biso   1.000  N
  H1065    1.0000 0.45300  0.21960  0.02570  Biso   1.000  H
  H1066    1.0000 0.47560  0.21620  0.98740  Biso   1.000  H
  H1067    1.0000 0.43150  0.22290  0.98680  Biso   1.000  H
  C1029    1.0000 0.43720  0.11190  0.98060  Biso   1.000  C
  C1030    1.0000 0.43230  0.07900  0.96040  Biso   1.000  C
  H1068    1.0000 0.43230  0.07940  0.93310  Biso   1.000  H
  C1031    1.0000 0.42720  0.04490  0.98020  Biso   1.000  C
  H1069    1.0000 0.42480  0.02140  0.96650  Biso   1.000  H
  N188     1.0000 0.27490  0.04680  0.96870  Biso   1.000  N
  H1070    1.0000 0.22020  0.09500  0.02570  Biso   1.000  H
  H1071    1.0000 0.23500  0.11180  0.98720  Biso   1.000  H
  H1072    1.0000 0.20550  0.07840  0.98710  Biso   1.000  H
  C1032    1.0000 0.30310  0.02210  0.98060  Biso   1.000  C
  C1033    1.0000 0.35370  0.97710  0.98040  Biso   1.000  C
  H1073    1.0000 0.37150  0.96140  0.96680  Biso   1.000  H
  H1074    1.0000 0.41360  0.20980  0.02570  Biso   1.000  H
  H1075    1.0000 0.39380  0.19930  0.98720  Biso   1.000  H
  H1076    1.0000 0.43320  0.22020  0.98700  Biso   1.000  H
  H1077    1.0000 0.21150  0.02310  0.02570  Biso   1.000  H
  H1078    1.0000 0.19650  0.03970  0.98720  Biso   1.000  H
  H1079    1.0000 0.22640  0.00660  0.98710  Biso   1.000  H
  H1080    1.0000 0.51120  0.02660  0.96680  Biso   1.000  H
  C1034    1.0000 0.48300  0.07870  0.95980  Biso   1.000  C
  H1081    1.0000 0.48260  0.07860  0.93250  Biso   1.000  H
  Zn95     1.0000 0.75700  0.55076  0.41616  Biso   1.000  Zn
  Zn96     1.0000 0.94964  0.66150  0.41485  Biso   1.000  Zn
  O377     1.0000 0.95310  0.63403  0.32651  Biso   1.000  O
  O378     1.0000 0.91720  0.63391  0.37917  Biso   1.000  O
  O379     1.0000 0.77375  0.53971  0.33287  Biso   1.000  O
  O380     1.0000 0.80176  0.55977  0.38568  Biso   1.000  O
  O381     1.0000 0.84880  0.53938  0.21397  Biso   1.000  O
  O382     1.0000 0.90944  0.55870  0.21584  Biso   1.000  O
  O383     1.0000 0.71493  0.58183  0.40117  Biso   1.000  O
  O384     1.0000 0.69014  0.54635  0.35350  Biso   1.000  O
  C1035    1.0000 0.89430  0.60102  0.32593  Biso   1.000  C
  C1036    1.0000 0.86300  0.58924  0.34565  Biso   1.000  C
  H1082    1.0000 0.86040  0.59600  0.37110  Biso   1.000  H
  C1037    1.0000 0.83476  0.56718  0.32830  Biso   1.000  C
  C1038    1.0000 0.83937  0.55672  0.29066  Biso   1.000  C
  H1083    1.0000 0.82070  0.54220  0.27870  Biso   1.000  H
  C1039    1.0000 0.87126  0.56748  0.27070  Biso   1.000  C
  C1040    1.0000 0.89856  0.58973  0.28826  Biso   1.000  C
  H1084    1.0000 0.92000  0.59720  0.27470  Biso   1.000  H
  C1041    1.0000 0.92425  0.62497  0.34524  Biso   1.000  C
  C1042    1.0000 0.80038  0.55388  0.35016  Biso   1.000  C
  C1043    1.0000 0.87614  0.55459  0.23040  Biso   1.000  C
  C1044    1.0000 0.68994  0.57400  0.37551  Biso   1.000  C
  C1045    1.0000 0.65811  0.60332  0.37290  Biso   1.000  C
  C1046    1.0000 0.63190  0.60102  0.34395  Biso   1.000  C
  H1085    1.0000 0.63370  0.58110  0.32530  Biso   1.000  H
  N189     1.0000 0.94860  0.64370  0.46810  Biso   1.000  N
  C1047    1.0000 0.96650  0.61000  0.48060  Biso   1.000  C
  N190     1.0000 0.76480  0.57130  0.46850  Biso   1.000  N
  C1048    1.0000 0.79240  0.59640  0.48090  Biso   1.000  C
  C1049    1.0000 0.81860  0.62000  0.46100  Biso   1.000  C
  H1086    1.0000 0.81890  0.61990  0.43370  Biso   1.000  H
  C1050    1.0000 0.84270  0.64190  0.48050  Biso   1.000  C
  H1087    1.0000 0.86010  0.65810  0.46690  Biso   1.000  H
  N191     1.0000 0.94260  0.64860  0.46830  Biso   1.000  N
  H1088    1.0000 0.95300  0.71960  0.52570  Biso   1.000  H
  H1089    1.0000 0.97560  0.71620  0.48740  Biso   1.000  H
  H1090    1.0000 0.93150  0.72290  0.48680  Biso   1.000  H
  C1051    1.0000 0.93720  0.61190  0.48060  Biso   1.000  C
  C1052    1.0000 0.93230  0.57900  0.46040  Biso   1.000  C
  H1091    1.0000 0.93230  0.57940  0.43310  Biso   1.000  H
  C1053    1.0000 0.92720  0.54490  0.48020  Biso   1.000  C
  H1092    1.0000 0.92480  0.52140  0.46650  Biso   1.000  H
  N192     1.0000 0.77490  0.54680  0.46870  Biso   1.000  N
  H1093    1.0000 0.72020  0.59500  0.52570  Biso   1.000  H
  H1094    1.0000 0.73500  0.61180  0.48720  Biso   1.000  H
  H1095    1.0000 0.70550  0.57840  0.48710  Biso   1.000  H
  C1054    1.0000 0.80310  0.52210  0.48060  Biso   1.000  C
  C1055    1.0000 0.85370  0.47710  0.48040  Biso   1.000  C
  H1096    1.0000 0.87150  0.46140  0.46680  Biso   1.000  H
  H1097    1.0000 0.91360  0.70980  0.52570  Biso   1.000  H
  H1098    1.0000 0.89380  0.69930  0.48720  Biso   1.000  H
  H1099    1.0000 0.93320  0.72020  0.48700  Biso   1.000  H
  H1100    1.0000 0.71150  0.52310  0.52570  Biso   1.000  H
  H1101    1.0000 0.69650  0.53970  0.48720  Biso   1.000  H
  H1102    1.0000 0.72640  0.50660  0.48710  Biso   1.000  H
  H1103    1.0000 0.01120  0.52660  0.46680  Biso   1.000  H
  C1056    1.0000 0.98300  0.57870  0.45980  Biso   1.000  C
  H1104    1.0000 0.98260  0.57860  0.43250  Biso   1.000  H
  Zn97     1.0000 0.16200  0.50000  0.17024  Biso   1.000  Zn
  O385     1.0000 0.10591  0.50000  0.14786  Biso   1.000  O
  C1057    1.0000 0.01960  0.50000  0.04740  Biso   1.000  C
  Zn98     1.0000 0.66200  0.00000  0.67024  Biso   1.000  Zn
  O386     1.0000 0.60591  0.00000  0.64786  Biso   1.000  O
  C1058    1.0000 0.51960  0.00000  0.54740  Biso   1.000  C
  Zn99     1.0000 0.83800  0.50000  0.17024  Biso   1.000  Zn
  O387     1.0000 0.89409  0.50000  0.14786  Biso   1.000  O
  C1059    1.0000 0.98040  0.50000  0.04740  Biso   1.000  C
  Zn100    1.0000 0.33800  0.00000  0.67024  Biso   1.000  Zn
  O388     1.0000 0.39409  0.00000  0.64786  Biso   1.000  O
  C1060    1.0000 0.48040  0.00000  0.54740  Biso   1.000  C
  Zn101    1.0000 0.83800  0.50000  0.82976  Biso   1.000  Zn
  O389     1.0000 0.89409  0.50000  0.85214  Biso   1.000  O
  C1061    1.0000 0.98040  0.50000  0.95260  Biso   1.000  C
  Zn102    1.0000 0.33800  0.00000  0.32976  Biso   1.000  Zn
  O390     1.0000 0.39409  0.00000  0.35214  Biso   1.000  O
  C1062    1.0000 0.48040  0.00000  0.45260  Biso   1.000  C
  Zn103    1.0000 0.16200  0.50000  0.82976  Biso   1.000  Zn
  O391     1.0000 0.10591  0.50000  0.85214  Biso   1.000  O
  C1063    1.0000 0.01960  0.50000  0.95260  Biso   1.000  C
  Zn104    1.0000 0.66200  0.00000  0.32976  Biso   1.000  Zn
  O392     1.0000 0.60591  0.00000  0.35214  Biso   1.000  O
  C1064    1.0000 0.51960  0.00000  0.45260  Biso   1.000  C
  Zn105    1.0000 0.17024  0.16200  0.50000  Biso   1.000  Zn
  O393     1.0000 0.14786  0.10591  0.50000  Biso   1.000  O
  C1065    1.0000 0.04740  0.01960  0.50000  Biso   1.000  C
  Zn106    1.0000 0.67024  0.66200  0.00000  Biso   1.000  Zn
  O394     1.0000 0.64786  0.60591  0.00000  Biso   1.000  O
  C1066    1.0000 0.54740  0.51960  0.00000  Biso   1.000  C
  Zn107    1.0000 0.17024  0.83800  0.50000  Biso   1.000  Zn
  O395     1.0000 0.14786  0.89409  0.50000  Biso   1.000  O
  C1067    1.0000 0.04740  0.98040  0.50000  Biso   1.000  C
  Zn108    1.0000 0.67024  0.33800  0.00000  Biso   1.000  Zn
  O396     1.0000 0.64786  0.39409  0.00000  Biso   1.000  O
  C1068    1.0000 0.54740  0.48040  0.00000  Biso   1.000  C
  Zn109    1.0000 0.82976  0.83800  0.50000  Biso   1.000  Zn
  O397     1.0000 0.85214  0.89409  0.50000  Biso   1.000  O
  C1069    1.0000 0.95260  0.98040  0.50000  Biso   1.000  C
  Zn110    1.0000 0.32976  0.33800  0.00000  Biso   1.000  Zn
  O398     1.0000 0.35214  0.39409  0.00000  Biso   1.000  O
  C1070    1.0000 0.45260  0.48040  0.00000  Biso   1.000  C
  Zn111    1.0000 0.82976  0.16200  0.50000  Biso   1.000  Zn
  O399     1.0000 0.85214  0.10591  0.50000  Biso   1.000  O
  C1071    1.0000 0.95260  0.01960  0.50000  Biso   1.000  C
  Zn112    1.0000 0.32976  0.66200  0.00000  Biso   1.000  Zn
  O400     1.0000 0.35214  0.60591  0.00000  Biso   1.000  O
  C1072    1.0000 0.45260  0.51960  0.00000  Biso   1.000  C
  Zn113    1.0000 0.50000  0.17024  0.16200  Biso   1.000  Zn
  O401     1.0000 0.50000  0.14786  0.10591  Biso   1.000  O
  C1073    1.0000 0.50000  0.04740  0.01960  Biso   1.000  C
  Zn114    1.0000 0.00000  0.67024  0.66200  Biso   1.000  Zn
  O402     1.0000 0.00000  0.64786  0.60591  Biso   1.000  O
  C1074    1.0000 0.00000  0.54740  0.51960  Biso   1.000  C
  Zn115    1.0000 0.50000  0.17024  0.83800  Biso   1.000  Zn
  O403     1.0000 0.50000  0.14786  0.89409  Biso   1.000  O
  C1075    1.0000 0.50000  0.04740  0.98040  Biso   1.000  C
  Zn116    1.0000 0.00000  0.67024  0.33800  Biso   1.000  Zn
  O404     1.0000 0.00000  0.64786  0.39409  Biso   1.000  O
  C1076    1.0000 0.00000  0.54740  0.48040  Biso   1.000  C
  Zn117    1.0000 0.50000  0.82976  0.83800  Biso   1.000  Zn
  O405     1.0000 0.50000  0.85214  0.89409  Biso   1.000  O
  C1077    1.0000 0.50000  0.95260  0.98040  Biso   1.000  C
  Zn118    1.0000 0.00000  0.32976  0.33800  Biso   1.000  Zn
  O406     1.0000 0.00000  0.35214  0.39409  Biso   1.000  O
  C1078    1.0000 0.00000  0.45260  0.48040  Biso   1.000  C
  Zn119    1.0000 0.50000  0.82976  0.16200  Biso   1.000  Zn
  O407     1.0000 0.50000  0.85214  0.10591  Biso   1.000  O
  C1079    1.0000 0.50000  0.95260  0.01960  Biso   1.000  C
  Zn120    1.0000 0.00000  0.32976  0.66200  Biso   1.000  Zn
  O408     1.0000 0.00000  0.35214  0.60591  Biso   1.000  O
  C1080    1.0000 0.00000  0.45260  0.51960  Biso   1.000  C
  Zn121    1.0000 0.15580  0.22999  0.00000  Biso   1.000  Zn
  O409     1.0000 0.09661  0.23689  0.00000  Biso   1.000  O
  C1081    1.0000 0.03920  0.32810  0.00000  Biso   1.000  C
  H1105    1.0000 0.06650  0.32810  0.00000  Biso   1.000  H
  Zn122    1.0000 0.65580  0.72999  0.50000  Biso   1.000  Zn
  O410     1.0000 0.59661  0.73689  0.50000  Biso   1.000  O
  C1082    1.0000 0.53920  0.82810  0.50000  Biso   1.000  C
  H1106    1.0000 0.56650  0.82810  0.50000  Biso   1.000  H
  Zn123    1.0000 0.84420  0.77001  0.00000  Biso   1.000  Zn
  O411     1.0000 0.90339  0.76311  0.00000  Biso   1.000  O
  C1083    1.0000 0.96080  0.67190  0.00000  Biso   1.000  C
  H1107    1.0000 0.93350  0.67190  0.00000  Biso   1.000  H
  Zn124    1.0000 0.34420  0.27001  0.50000  Biso   1.000  Zn
  O412     1.0000 0.40339  0.26311  0.50000  Biso   1.000  O
  C1084    1.0000 0.46080  0.17190  0.50000  Biso   1.000  C
  H1108    1.0000 0.43350  0.17190  0.50000  Biso   1.000  H
  Zn125    1.0000 0.84420  0.22999  0.00000  Biso   1.000  Zn
  O413     1.0000 0.90339  0.23689  0.00000  Biso   1.000  O
  C1085    1.0000 0.96080  0.32810  0.00000  Biso   1.000  C
  H1109    1.0000 0.93350  0.32810  0.00000  Biso   1.000  H
  Zn126    1.0000 0.34420  0.72999  0.50000  Biso   1.000  Zn
  O414     1.0000 0.40339  0.73689  0.50000  Biso   1.000  O
  C1086    1.0000 0.46080  0.82810  0.50000  Biso   1.000  C
  H1110    1.0000 0.43350  0.82810  0.50000  Biso   1.000  H
  Zn127    1.0000 0.15580  0.77001  0.00000  Biso   1.000  Zn
  O415     1.0000 0.09661  0.76311  0.00000  Biso   1.000  O
  C1087    1.0000 0.03920  0.67190  0.00000  Biso   1.000  C
  H1111    1.0000 0.06650  0.67190  0.00000  Biso   1.000  H
  Zn128    1.0000 0.65580  0.27001  0.50000  Biso   1.000  Zn
  O416     1.0000 0.59661  0.26311  0.50000  Biso   1.000  O
  C1088    1.0000 0.53920  0.17190  0.50000  Biso   1.000  C
  H1112    1.0000 0.56650  0.17190  0.50000  Biso   1.000  H
  Zn129    1.0000 0.00000  0.15580  0.22999  Biso   1.000  Zn
  O417     1.0000 0.00000  0.09661  0.23689  Biso   1.000  O
  C1089    1.0000 0.00000  0.03920  0.32810  Biso   1.000  C
  H1113    1.0000 0.00000  0.06650  0.32810  Biso   1.000  H
  Zn130    1.0000 0.50000  0.65580  0.72999  Biso   1.000  Zn
  O418     1.0000 0.50000  0.59661  0.73689  Biso   1.000  O
  C1090    1.0000 0.50000  0.53920  0.82810  Biso   1.000  C
  H1114    1.0000 0.50000  0.56650  0.82810  Biso   1.000  H
  Zn131    1.0000 0.00000  0.84420  0.77001  Biso   1.000  Zn
  O419     1.0000 0.00000  0.90339  0.76311  Biso   1.000  O
  C1091    1.0000 0.00000  0.96080  0.67190  Biso   1.000  C
  H1115    1.0000 0.00000  0.93350  0.67190  Biso   1.000  H
  Zn132    1.0000 0.50000  0.34420  0.27001  Biso   1.000  Zn
  O420     1.0000 0.50000  0.40339  0.26311  Biso   1.000  O
  C1092    1.0000 0.50000  0.46080  0.17190  Biso   1.000  C
  H1116    1.0000 0.50000  0.43350  0.17190  Biso   1.000  H
  Zn133    1.0000 0.00000  0.84420  0.22999  Biso   1.000  Zn
  O421     1.0000 0.00000  0.90339  0.23689  Biso   1.000  O
  C1093    1.0000 0.00000  0.96080  0.32810  Biso   1.000  C
  H1117    1.0000 0.00000  0.93350  0.32810  Biso   1.000  H
  Zn134    1.0000 0.50000  0.34420  0.72999  Biso   1.000  Zn
  O422     1.0000 0.50000  0.40339  0.73689  Biso   1.000  O
  C1094    1.0000 0.50000  0.46080  0.82810  Biso   1.000  C
  H1118    1.0000 0.50000  0.43350  0.82810  Biso   1.000  H
  Zn135    1.0000 0.00000  0.15580  0.77001  Biso   1.000  Zn
  O423     1.0000 0.00000  0.09661  0.76311  Biso   1.000  O
  C1095    1.0000 0.00000  0.03920  0.67190  Biso   1.000  C
  H1119    1.0000 0.00000  0.06650  0.67190  Biso   1.000  H
  Zn136    1.0000 0.50000  0.65580  0.27001  Biso   1.000  Zn
  O424     1.0000 0.50000  0.59661  0.26311  Biso   1.000  O
  C1096    1.0000 0.50000  0.53920  0.17190  Biso   1.000  C
  H1120    1.0000 0.50000  0.56650  0.17190  Biso   1.000  H
  Zn137    1.0000 0.22999  0.00000  0.15580  Biso   1.000  Zn
  O425     1.0000 0.23689  0.00000  0.09661  Biso   1.000  O
  C1097    1.0000 0.32810  0.00000  0.03920  Biso   1.000  C
  H1121    1.0000 0.32810  0.00000  0.06650  Biso   1.000  H
  Zn138    1.0000 0.72999  0.50000  0.65580  Biso   1.000  Zn
  O426     1.0000 0.73689  0.50000  0.59661  Biso   1.000  O
  C1098    1.0000 0.82810  0.50000  0.53920  Biso   1.000  C
  H1122    1.0000 0.82810  0.50000  0.56650  Biso   1.000  H
  Zn139    1.0000 0.77001  0.00000  0.84420  Biso   1.000  Zn
  O427     1.0000 0.76311  0.00000  0.90339  Biso   1.000  O
  C1099    1.0000 0.67190  0.00000  0.96080  Biso   1.000  C
  H1123    1.0000 0.67190  0.00000  0.93350  Biso   1.000  H
  Zn140    1.0000 0.27001  0.50000  0.34420  Biso   1.000  Zn
  O428     1.0000 0.26311  0.50000  0.40339  Biso   1.000  O
  C1100    1.0000 0.17190  0.50000  0.46080  Biso   1.000  C
  H1124    1.0000 0.17190  0.50000  0.43350  Biso   1.000  H
  Zn141    1.0000 0.22999  0.00000  0.84420  Biso   1.000  Zn
  O429     1.0000 0.23689  0.00000  0.90339  Biso   1.000  O
  C1101    1.0000 0.32810  0.00000  0.96080  Biso   1.000  C
  H1125    1.0000 0.32810  0.00000  0.93350  Biso   1.000  H
  Zn142    1.0000 0.72999  0.50000  0.34420  Biso   1.000  Zn
  O430     1.0000 0.73689  0.50000  0.40339  Biso   1.000  O
  C1102    1.0000 0.82810  0.50000  0.46080  Biso   1.000  C
  H1126    1.0000 0.82810  0.50000  0.43350  Biso   1.000  H
  Zn143    1.0000 0.77001  0.00000  0.15580  Biso   1.000  Zn
  O431     1.0000 0.76311  0.00000  0.09661  Biso   1.000  O
  C1103    1.0000 0.67190  0.00000  0.03920  Biso   1.000  C
  H1127    1.0000 0.67190  0.00000  0.06650  Biso   1.000  H
  Zn144    1.0000 0.27001  0.50000  0.65580  Biso   1.000  Zn
  O432     1.0000 0.26311  0.50000  0.59661  Biso   1.000  O
  C1104    1.0000 0.17190  0.50000  0.53920  Biso   1.000  C
  H1128    1.0000 0.17190  0.50000  0.56650  Biso   1.000  H
  C1105    1.0000 0.00000  0.43820  0.16330  Biso   1.000  C
  C1106    1.0000 0.00000  0.41780  0.20170  Biso   1.000  C
  C1107    1.0000 0.00000  0.24860  0.05680  Biso   1.000  C
  C1108    1.0000 0.00000  0.21820  0.02920  Biso   1.000  C
  C1109    1.0000 0.00000  0.44580  0.16940  Biso   1.000  C
  C1110    1.0000 0.00000  0.45200  0.21060  Biso   1.000  C
  C1111    1.0000 0.00000  0.25860  0.06120  Biso   1.000  C
  C1112    1.0000 0.00000  0.22700  0.08910  Biso   1.000  C
  C1113    1.0000 0.50000  0.93820  0.66330  Biso   1.000  C
  C1114    1.0000 0.50000  0.91780  0.70170  Biso   1.000  C
  C1115    1.0000 0.50000  0.74860  0.55680  Biso   1.000  C
  C1116    1.0000 0.50000  0.71820  0.52920  Biso   1.000  C
  C1117    1.0000 0.50000  0.94580  0.66940  Biso   1.000  C
  C1118    1.0000 0.50000  0.95200  0.71060  Biso   1.000  C
  C1119    1.0000 0.50000  0.75860  0.56120  Biso   1.000  C
  C1120    1.0000 0.50000  0.72700  0.58910  Biso   1.000  C
  C1121    1.0000 0.00000  0.56180  0.16330  Biso   1.000  C
  C1122    1.0000 0.00000  0.58220  0.20170  Biso   1.000  C
  C1123    1.0000 0.00000  0.75140  0.05680  Biso   1.000  C
  C1124    1.0000 0.00000  0.78180  0.02920  Biso   1.000  C
  C1125    1.0000 0.00000  0.55420  0.16940  Biso   1.000  C
  C1126    1.0000 0.00000  0.54800  0.21060  Biso   1.000  C
  C1127    1.0000 0.00000  0.74140  0.06120  Biso   1.000  C
  C1128    1.0000 0.00000  0.77300  0.08910  Biso   1.000  C
  C1129    1.0000 0.50000  0.06180  0.66330  Biso   1.000  C
  C1130    1.0000 0.50000  0.08220  0.70170  Biso   1.000  C
  C1131    1.0000 0.50000  0.25140  0.55680  Biso   1.000  C
  C1132    1.0000 0.50000  0.28180  0.52920  Biso   1.000  C
  C1133    1.0000 0.50000  0.05420  0.66940  Biso   1.000  C
  C1134    1.0000 0.50000  0.04800  0.71060  Biso   1.000  C
  C1135    1.0000 0.50000  0.24140  0.56120  Biso   1.000  C
  C1136    1.0000 0.50000  0.27300  0.58910  Biso   1.000  C
  C1137    1.0000 0.00000  0.43820  0.83670  Biso   1.000  C
  C1138    1.0000 0.00000  0.41780  0.79830  Biso   1.000  C
  C1139    1.0000 0.00000  0.24860  0.94320  Biso   1.000  C
  C1140    1.0000 0.00000  0.21820  0.97080  Biso   1.000  C
  C1141    1.0000 0.00000  0.44580  0.83060  Biso   1.000  C
  C1142    1.0000 0.00000  0.45200  0.78940  Biso   1.000  C
  C1143    1.0000 0.00000  0.25860  0.93880  Biso   1.000  C
  C1144    1.0000 0.00000  0.22700  0.91090  Biso   1.000  C
  C1145    1.0000 0.50000  0.93820  0.33670  Biso   1.000  C
  C1146    1.0000 0.50000  0.91780  0.29830  Biso   1.000  C
  C1147    1.0000 0.50000  0.74860  0.44320  Biso   1.000  C
  C1148    1.0000 0.50000  0.71820  0.47080  Biso   1.000  C
  C1149    1.0000 0.50000  0.94580  0.33060  Biso   1.000  C
  C1150    1.0000 0.50000  0.95200  0.28940  Biso   1.000  C
  C1151    1.0000 0.50000  0.75860  0.43880  Biso   1.000  C
  C1152    1.0000 0.50000  0.72700  0.41090  Biso   1.000  C
  C1153    1.0000 0.00000  0.56180  0.83670  Biso   1.000  C
  C1154    1.0000 0.00000  0.58220  0.79830  Biso   1.000  C
  C1155    1.0000 0.00000  0.75140  0.94320  Biso   1.000  C
  C1156    1.0000 0.00000  0.78180  0.97080  Biso   1.000  C
  C1157    1.0000 0.00000  0.55420  0.83060  Biso   1.000  C
  C1158    1.0000 0.00000  0.54800  0.78940  Biso   1.000  C
  C1159    1.0000 0.00000  0.74140  0.93880  Biso   1.000  C
  C1160    1.0000 0.00000  0.77300  0.91090  Biso   1.000  C
  C1161    1.0000 0.50000  0.06180  0.33670  Biso   1.000  C
  C1162    1.0000 0.50000  0.08220  0.29830  Biso   1.000  C
  C1163    1.0000 0.50000  0.25140  0.44320  Biso   1.000  C
  C1164    1.0000 0.50000  0.28180  0.47080  Biso   1.000  C
  C1165    1.0000 0.50000  0.05420  0.33060  Biso   1.000  C
  C1166    1.0000 0.50000  0.04800  0.28940  Biso   1.000  C
  C1167    1.0000 0.50000  0.24140  0.43880  Biso   1.000  C
  C1168    1.0000 0.50000  0.27300  0.41090  Biso   1.000  C
  C1169    1.0000 0.16330  0.00000  0.43820  Biso   1.000  C
  C1170    1.0000 0.20170  0.00000  0.41780  Biso   1.000  C
  C1171    1.0000 0.05680  0.00000  0.24860  Biso   1.000  C
  C1172    1.0000 0.02920  0.00000  0.21820  Biso   1.000  C
  C1173    1.0000 0.16940  0.00000  0.44580  Biso   1.000  C
  C1174    1.0000 0.21060  0.00000  0.45200  Biso   1.000  C
  C1175    1.0000 0.06120  0.00000  0.25860  Biso   1.000  C
  C1176    1.0000 0.08910  0.00000  0.22700  Biso   1.000  C
  C1177    1.0000 0.66330  0.50000  0.93820  Biso   1.000  C
  C1178    1.0000 0.70170  0.50000  0.91780  Biso   1.000  C
  C1179    1.0000 0.55680  0.50000  0.74860  Biso   1.000  C
  C1180    1.0000 0.52920  0.50000  0.71820  Biso   1.000  C
  C1181    1.0000 0.66940  0.50000  0.94580  Biso   1.000  C
  C1182    1.0000 0.71060  0.50000  0.95200  Biso   1.000  C
  C1183    1.0000 0.56120  0.50000  0.75860  Biso   1.000  C
  C1184    1.0000 0.58910  0.50000  0.72700  Biso   1.000  C
  C1185    1.0000 0.16330  0.00000  0.56180  Biso   1.000  C
  C1186    1.0000 0.20170  0.00000  0.58220  Biso   1.000  C
  C1187    1.0000 0.05680  0.00000  0.75140  Biso   1.000  C
  C1188    1.0000 0.02920  0.00000  0.78180  Biso   1.000  C
  C1189    1.0000 0.16940  0.00000  0.55420  Biso   1.000  C
  C1190    1.0000 0.21060  0.00000  0.54800  Biso   1.000  C
  C1191    1.0000 0.06120  0.00000  0.74140  Biso   1.000  C
  C1192    1.0000 0.08910  0.00000  0.77300  Biso   1.000  C
  C1193    1.0000 0.66330  0.50000  0.06180  Biso   1.000  C
  C1194    1.0000 0.70170  0.50000  0.08220  Biso   1.000  C
  C1195    1.0000 0.55680  0.50000  0.25140  Biso   1.000  C
  C1196    1.0000 0.52920  0.50000  0.28180  Biso   1.000  C
  C1197    1.0000 0.66940  0.50000  0.05420  Biso   1.000  C
  C1198    1.0000 0.71060  0.50000  0.04800  Biso   1.000  C
  C1199    1.0000 0.56120  0.50000  0.24140  Biso   1.000  C
  C1200    1.0000 0.58910  0.50000  0.27300  Biso   1.000  C
  C1201    1.0000 0.83670  0.00000  0.43820  Biso   1.000  C
  C1202    1.0000 0.79830  0.00000  0.41780  Biso   1.000  C
  C1203    1.0000 0.94320  0.00000  0.24860  Biso   1.000  C
  C1204    1.0000 0.97080  0.00000  0.21820  Biso   1.000  C
  C1205    1.0000 0.83060  0.00000  0.44580  Biso   1.000  C
  C1206    1.0000 0.78940  0.00000  0.45200  Biso   1.000  C
  C1207    1.0000 0.93880  0.00000  0.25860  Biso   1.000  C
  C1208    1.0000 0.91090  0.00000  0.22700  Biso   1.000  C
  C1209    1.0000 0.33670  0.50000  0.93820  Biso   1.000  C
  C1210    1.0000 0.29830  0.50000  0.91780  Biso   1.000  C
  C1211    1.0000 0.44320  0.50000  0.74860  Biso   1.000  C
  C1212    1.0000 0.47080  0.50000  0.71820  Biso   1.000  C
  C1213    1.0000 0.33060  0.50000  0.94580  Biso   1.000  C
  C1214    1.0000 0.28940  0.50000  0.95200  Biso   1.000  C
  C1215    1.0000 0.43880  0.50000  0.75860  Biso   1.000  C
  C1216    1.0000 0.41090  0.50000  0.72700  Biso   1.000  C
  C1217    1.0000 0.83670  0.00000  0.56180  Biso   1.000  C
  C1218    1.0000 0.79830  0.00000  0.58220  Biso   1.000  C
  C1219    1.0000 0.94320  0.00000  0.75140  Biso   1.000  C
  C1220    1.0000 0.97080  0.00000  0.78180  Biso   1.000  C
  C1221    1.0000 0.83060  0.00000  0.55420  Biso   1.000  C
  C1222    1.0000 0.78940  0.00000  0.54800  Biso   1.000  C
  C1223    1.0000 0.93880  0.00000  0.74140  Biso   1.000  C
  C1224    1.0000 0.91090  0.00000  0.77300  Biso   1.000  C
  C1225    1.0000 0.33670  0.50000  0.06180  Biso   1.000  C
  C1226    1.0000 0.29830  0.50000  0.08220  Biso   1.000  C
  C1227    1.0000 0.44320  0.50000  0.25140  Biso   1.000  C
  C1228    1.0000 0.47080  0.50000  0.28180  Biso   1.000  C
  C1229    1.0000 0.33060  0.50000  0.05420  Biso   1.000  C
  C1230    1.0000 0.28940  0.50000  0.04800  Biso   1.000  C
  C1231    1.0000 0.43880  0.50000  0.24140  Biso   1.000  C
  C1232    1.0000 0.41090  0.50000  0.27300  Biso   1.000  C
  C1233    1.0000 0.43820  0.16330  0.00000  Biso   1.000  C
  C1234    1.0000 0.41780  0.20170  0.00000  Biso   1.000  C
  C1235    1.0000 0.24860  0.05680  0.00000  Biso   1.000  C
  C1236    1.0000 0.21820  0.02920  0.00000  Biso   1.000  C
  C1237    1.0000 0.44580  0.16940  0.00000  Biso   1.000  C
  C1238    1.0000 0.45200  0.21060  0.00000  Biso   1.000  C
  C1239    1.0000 0.25860  0.06120  0.00000  Biso   1.000  C
  C1240    1.0000 0.22700  0.08910  0.00000  Biso   1.000  C
  C1241    1.0000 0.93820  0.66330  0.50000  Biso   1.000  C
  C1242    1.0000 0.91780  0.70170  0.50000  Biso   1.000  C
  C1243    1.0000 0.74860  0.55680  0.50000  Biso   1.000  C
  C1244    1.0000 0.71820  0.52920  0.50000  Biso   1.000  C
  C1245    1.0000 0.94580  0.66940  0.50000  Biso   1.000  C
  C1246    1.0000 0.95200  0.71060  0.50000  Biso   1.000  C
  C1247    1.0000 0.75860  0.56120  0.50000  Biso   1.000  C
  C1248    1.0000 0.72700  0.58910  0.50000  Biso   1.000  C
  C1249    1.0000 0.56180  0.16330  0.00000  Biso   1.000  C
  C1250    1.0000 0.58220  0.20170  0.00000  Biso   1.000  C
  C1251    1.0000 0.75140  0.05680  0.00000  Biso   1.000  C
  C1252    1.0000 0.78180  0.02920  0.00000  Biso   1.000  C
  C1253    1.0000 0.55420  0.16940  0.00000  Biso   1.000  C
  C1254    1.0000 0.54800  0.21060  0.00000  Biso   1.000  C
  C1255    1.0000 0.74140  0.06120  0.00000  Biso   1.000  C
  C1256    1.0000 0.77300  0.08910  0.00000  Biso   1.000  C
  C1257    1.0000 0.06180  0.66330  0.50000  Biso   1.000  C
  C1258    1.0000 0.08220  0.70170  0.50000  Biso   1.000  C
  C1259    1.0000 0.25140  0.55680  0.50000  Biso   1.000  C
  C1260    1.0000 0.28180  0.52920  0.50000  Biso   1.000  C
  C1261    1.0000 0.05420  0.66940  0.50000  Biso   1.000  C
  C1262    1.0000 0.04800  0.71060  0.50000  Biso   1.000  C
  C1263    1.0000 0.24140  0.56120  0.50000  Biso   1.000  C
  C1264    1.0000 0.27300  0.58910  0.50000  Biso   1.000  C
  C1265    1.0000 0.43820  0.83670  0.00000  Biso   1.000  C
  C1266    1.0000 0.41780  0.79830  0.00000  Biso   1.000  C
  C1267    1.0000 0.24860  0.94320  0.00000  Biso   1.000  C
  C1268    1.0000 0.21820  0.97080  0.00000  Biso   1.000  C
  C1269    1.0000 0.44580  0.83060  0.00000  Biso   1.000  C
  C1270    1.0000 0.45200  0.78940  0.00000  Biso   1.000  C
  C1271    1.0000 0.25860  0.93880  0.00000  Biso   1.000  C
  C1272    1.0000 0.22700  0.91090  0.00000  Biso   1.000  C
  C1273    1.0000 0.93820  0.33670  0.50000  Biso   1.000  C
  C1274    1.0000 0.91780  0.29830  0.50000  Biso   1.000  C
  C1275    1.0000 0.74860  0.44320  0.50000  Biso   1.000  C
  C1276    1.0000 0.71820  0.47080  0.50000  Biso   1.000  C
  C1277    1.0000 0.94580  0.33060  0.50000  Biso   1.000  C
  C1278    1.0000 0.95200  0.28940  0.50000  Biso   1.000  C
  C1279    1.0000 0.75860  0.43880  0.50000  Biso   1.000  C
  C1280    1.0000 0.72700  0.41090  0.50000  Biso   1.000  C
  C1281    1.0000 0.56180  0.83670  0.00000  Biso   1.000  C
  C1282    1.0000 0.58220  0.79830  0.00000  Biso   1.000  C
  C1283    1.0000 0.75140  0.94320  0.00000  Biso   1.000  C
  C1284    1.0000 0.78180  0.97080  0.00000  Biso   1.000  C
  C1285    1.0000 0.55420  0.83060  0.00000  Biso   1.000  C
  C1286    1.0000 0.54800  0.78940  0.00000  Biso   1.000  C
  C1287    1.0000 0.74140  0.93880  0.00000  Biso   1.000  C
  C1288    1.0000 0.77300  0.91090  0.00000  Biso   1.000  C
  C1289    1.0000 0.06180  0.33670  0.50000  Biso   1.000  C
  C1290    1.0000 0.08220  0.29830  0.50000  Biso   1.000  C
  C1291    1.0000 0.25140  0.44320  0.50000  Biso   1.000  C
  C1292    1.0000 0.28180  0.47080  0.50000  Biso   1.000  C
  C1293    1.0000 0.05420  0.33060  0.50000  Biso   1.000  C
  C1294    1.0000 0.04800  0.28940  0.50000  Biso   1.000  C
  C1295    1.0000 0.24140  0.43880  0.50000  Biso   1.000  C
  C1296    1.0000 0.27300  0.41090  0.50000  Biso   1.000  C
