data_image0
_cell_length_a       25.9263
_cell_length_b       25.9263
_cell_length_c       19.6532
_cell_angle_alpha    90
_cell_angle_beta     90
_cell_angle_gamma    120

_symmetry_space_group_name_H-M    "P 1"
_symmetry_int_tables_number       1

loop_
  _symmetry_equiv_pos_as_xyz
  'x, y, z'

loop_
  _atom_site_label
  _atom_site_occupancy
  _atom_site_fract_x
  _atom_site_fract_y
  _atom_site_fract_z
  _atom_site_thermal_displace_type
  _atom_site_B_iso_or_equiv
  _atom_site_type_symbol
  Zn1      1.0000 0.10131  0.43277  0.40307  Biso   1.000  Zn
  N1       1.0000 0.03600  0.37340  0.45850  Biso   1.000  N
  C1       1.0000 0.02150  0.31670  0.47460  Biso   1.000  C
  C2       1.0000 0.04800  0.28210  0.44340  Biso   1.000  C
  H1       1.0000 0.07620  0.29570  0.40740  Biso   1.000  H
  C3       1.0000 0.02360  0.22440  0.47720  Biso   1.000  C
  H2       1.0000 0.04160  0.20110  0.46710  Biso   1.000  H
  C4       1.0000 0.03900  0.17800  0.45200  Biso   1.000  C
  H3       1.0000 0.00330  0.13890  0.44940  Biso   1.000  H
  H4       1.0000 0.06760  0.17590  0.48380  Biso   1.000  H
  H5       1.0000 0.05780  0.18930  0.40680  Biso   1.000  H
  N2       1.0000 0.17200  0.43180  0.43680  Biso   1.000  N
  C5       1.0000 0.19020  0.43380  0.50120  Biso   1.000  C
  C6       1.0000 0.15770  0.43280  0.56670  Biso   1.000  C
  H6       1.0000 0.12010  0.43090  0.56760  Biso   1.000  H
  C7       1.0000 0.19080  0.43530  0.62720  Biso   1.000  C
  C8       1.0000 0.14700  0.43700  0.67900  Biso   1.000  C
  H7       1.0000 0.16850  0.46250  0.71680  Biso   1.000  H
  H8       1.0000 0.11990  0.39610  0.69530  Biso   1.000  H
  H9       1.0000 0.12300  0.45170  0.65610  Biso   1.000  H
  N3       1.0000 0.11270  0.51290  0.42730  Biso   1.000  N
  C9       1.0000 0.15990  0.55240  0.46120  Biso   1.000  C
  H10      1.0000 0.18890  0.54550  0.48200  Biso   1.000  H
  O1       1.0000 0.01330  0.54730  0.36870  Biso   1.000  O
  N4       1.0000 0.08190  0.40580  0.30610  Biso   1.000  N
  C10      1.0000 0.03110  0.35440  0.28350  Biso   1.000  C
  H11      1.0000 0.00150  0.32450  0.31180  Biso   1.000  H
  O2       1.0000 0.18510  0.50970  0.30490  Biso   1.000  O
  H12      1.0000 0.17470  0.43700  0.67000  Biso   1.000  H
  Zn2      1.0000 0.56723  0.66854  0.40307  Biso   1.000  Zn
  N5       1.0000 0.62660  0.66260  0.45850  Biso   1.000  N
  C11      1.0000 0.68330  0.70480  0.47460  Biso   1.000  C
  C12      1.0000 0.71790  0.76590  0.44340  Biso   1.000  C
  H13      1.0000 0.70430  0.78050  0.40740  Biso   1.000  H
  C13      1.0000 0.77560  0.79920  0.47720  Biso   1.000  C
  H14      1.0000 0.79890  0.84050  0.46710  Biso   1.000  H
  C14      1.0000 0.82200  0.86100  0.45200  Biso   1.000  C
  H15      1.0000 0.86110  0.86440  0.44940  Biso   1.000  H
  H16      1.0000 0.82410  0.89170  0.48380  Biso   1.000  H
  H17      1.0000 0.81070  0.86850  0.40680  Biso   1.000  H
  N6       1.0000 0.56820  0.74020  0.43680  Biso   1.000  N
  C15      1.0000 0.56620  0.75640  0.50120  Biso   1.000  C
  C16      1.0000 0.56720  0.72490  0.56670  Biso   1.000  C
  H18      1.0000 0.56910  0.68920  0.56760  Biso   1.000  H
  C17      1.0000 0.56470  0.75550  0.62720  Biso   1.000  C
  C18      1.0000 0.56300  0.71000  0.67900  Biso   1.000  C
  H19      1.0000 0.53750  0.70600  0.71680  Biso   1.000  H
  H20      1.0000 0.60390  0.72380  0.69530  Biso   1.000  H
  H21      1.0000 0.54830  0.67130  0.65610  Biso   1.000  H
  N7       1.0000 0.48710  0.59980  0.42730  Biso   1.000  N
  C19      1.0000 0.44760  0.60750  0.46120  Biso   1.000  C
  H22      1.0000 0.45450  0.64340  0.48200  Biso   1.000  H
  O3       1.0000 0.45270  0.46600  0.36870  Biso   1.000  O
  N8       1.0000 0.59420  0.67610  0.30610  Biso   1.000  N
  C20      1.0000 0.64560  0.67670  0.28350  Biso   1.000  C
  H23      1.0000 0.67550  0.67700  0.31180  Biso   1.000  H
  O4       1.0000 0.49030  0.67540  0.30490  Biso   1.000  O
  H24      1.0000 0.56300  0.73770  0.67000  Biso   1.000  H
  Zn3      1.0000 0.33146  0.89869  0.40307  Biso   1.000  Zn
  N9       1.0000 0.33740  0.96400  0.45850  Biso   1.000  N
  C21      1.0000 0.29520  0.97850  0.47460  Biso   1.000  C
  C22      1.0000 0.23410  0.95200  0.44340  Biso   1.000  C
  H25      1.0000 0.21950  0.92380  0.40740  Biso   1.000  H
  C23      1.0000 0.20080  0.97640  0.47720  Biso   1.000  C
  H26      1.0000 0.15950  0.95840  0.46710  Biso   1.000  H
  C24      1.0000 0.13900  0.96100  0.45200  Biso   1.000  C
  H27      1.0000 0.13560  0.99670  0.44940  Biso   1.000  H
  H28      1.0000 0.10830  0.93240  0.48380  Biso   1.000  H
  H29      1.0000 0.13150  0.94220  0.40680  Biso   1.000  H
  N10      1.0000 0.25980  0.82800  0.43680  Biso   1.000  N
  C25      1.0000 0.24360  0.80980  0.50120  Biso   1.000  C
  C26      1.0000 0.27510  0.84230  0.56670  Biso   1.000  C
  H30      1.0000 0.31080  0.87990  0.56760  Biso   1.000  H
  C27      1.0000 0.24450  0.80920  0.62720  Biso   1.000  C
  C28      1.0000 0.29000  0.85300  0.67900  Biso   1.000  C
  H31      1.0000 0.29400  0.83150  0.71680  Biso   1.000  H
  H32      1.0000 0.27620  0.88010  0.69530  Biso   1.000  H
  H33      1.0000 0.32870  0.87700  0.65610  Biso   1.000  H
  N11      1.0000 0.40020  0.88730  0.42730  Biso   1.000  N
  C29      1.0000 0.39250  0.84010  0.46120  Biso   1.000  C
  H34      1.0000 0.35660  0.81110  0.48200  Biso   1.000  H
  O5       1.0000 0.53400  0.98670  0.36870  Biso   1.000  O
  N12      1.0000 0.32390  0.91810  0.30610  Biso   1.000  N
  C30      1.0000 0.32330  0.96890  0.28350  Biso   1.000  C
  H35      1.0000 0.32300  0.99850  0.31180  Biso   1.000  H
  O6       1.0000 0.32460  0.81490  0.30490  Biso   1.000  O
  H36      1.0000 0.26230  0.82530  0.67000  Biso   1.000  H
  Zn4      1.0000 0.89869  0.56723  0.90307  Biso   1.000  Zn
  N13      1.0000 0.96400  0.62660  0.95850  Biso   1.000  N
  C31      1.0000 0.97850  0.68330  0.97460  Biso   1.000  C
  C32      1.0000 0.95200  0.71790  0.94340  Biso   1.000  C
  H37      1.0000 0.92380  0.70430  0.90740  Biso   1.000  H
  C33      1.0000 0.97640  0.77560  0.97720  Biso   1.000  C
  H38      1.0000 0.95840  0.79890  0.96710  Biso   1.000  H
  C34      1.0000 0.96100  0.82200  0.95200  Biso   1.000  C
  H39      1.0000 0.99670  0.86110  0.94940  Biso   1.000  H
  H40      1.0000 0.93240  0.82410  0.98380  Biso   1.000  H
  H41      1.0000 0.94220  0.81070  0.90680  Biso   1.000  H
  N14      1.0000 0.82800  0.56820  0.93680  Biso   1.000  N
  C35      1.0000 0.80980  0.56620  0.00120  Biso   1.000  C
  C36      1.0000 0.84230  0.56720  0.06670  Biso   1.000  C
  H42      1.0000 0.87990  0.56910  0.06760  Biso   1.000  H
  C37      1.0000 0.80920  0.56470  0.12720  Biso   1.000  C
  C38      1.0000 0.85300  0.56300  0.17900  Biso   1.000  C
  H43      1.0000 0.83150  0.53750  0.21680  Biso   1.000  H
  H44      1.0000 0.88010  0.60390  0.19530  Biso   1.000  H
  H45      1.0000 0.87700  0.54830  0.15610  Biso   1.000  H
  N15      1.0000 0.88730  0.48710  0.92730  Biso   1.000  N
  C39      1.0000 0.84010  0.44760  0.96120  Biso   1.000  C
  H46      1.0000 0.81110  0.45450  0.98200  Biso   1.000  H
  O7       1.0000 0.98670  0.45270  0.86870  Biso   1.000  O
  N16      1.0000 0.91810  0.59420  0.80610  Biso   1.000  N
  C40      1.0000 0.96890  0.64560  0.78350  Biso   1.000  C
  H47      1.0000 0.99850  0.67550  0.81180  Biso   1.000  H
  O8       1.0000 0.81490  0.49030  0.80490  Biso   1.000  O
  H48      1.0000 0.82530  0.56300  0.17000  Biso   1.000  H
  Zn5      1.0000 0.43277  0.33146  0.90307  Biso   1.000  Zn
  N17      1.0000 0.37340  0.33740  0.95850  Biso   1.000  N
  C41      1.0000 0.31670  0.29520  0.97460  Biso   1.000  C
  C42      1.0000 0.28210  0.23410  0.94340  Biso   1.000  C
  H49      1.0000 0.29570  0.21950  0.90740  Biso   1.000  H
  C43      1.0000 0.22440  0.20080  0.97720  Biso   1.000  C
  H50      1.0000 0.20110  0.15950  0.96710  Biso   1.000  H
  C44      1.0000 0.17800  0.13900  0.95200  Biso   1.000  C
  H51      1.0000 0.13890  0.13560  0.94940  Biso   1.000  H
  H52      1.0000 0.17590  0.10830  0.98380  Biso   1.000  H
  H53      1.0000 0.18930  0.13150  0.90680  Biso   1.000  H
  N18      1.0000 0.43180  0.25980  0.93680  Biso   1.000  N
  C45      1.0000 0.43380  0.24360  0.00120  Biso   1.000  C
  C46      1.0000 0.43280  0.27510  0.06670  Biso   1.000  C
  H54      1.0000 0.43090  0.31080  0.06760  Biso   1.000  H
  C47      1.0000 0.43530  0.24450  0.12720  Biso   1.000  C
  C48      1.0000 0.43700  0.29000  0.17900  Biso   1.000  C
  H55      1.0000 0.46250  0.29400  0.21680  Biso   1.000  H
  H56      1.0000 0.39610  0.27620  0.19530  Biso   1.000  H
  H57      1.0000 0.45170  0.32870  0.15610  Biso   1.000  H
  N19      1.0000 0.51290  0.40020  0.92730  Biso   1.000  N
  C49      1.0000 0.55240  0.39250  0.96120  Biso   1.000  C
  H58      1.0000 0.54550  0.35660  0.98200  Biso   1.000  H
  O9       1.0000 0.54730  0.53400  0.86870  Biso   1.000  O
  N20      1.0000 0.40580  0.32390  0.80610  Biso   1.000  N
  C50      1.0000 0.35440  0.32330  0.78350  Biso   1.000  C
  H59      1.0000 0.32450  0.32300  0.81180  Biso   1.000  H
  O10      1.0000 0.50970  0.32460  0.80490  Biso   1.000  O
  H60      1.0000 0.43700  0.26230  0.17000  Biso   1.000  H
  Zn6      1.0000 0.66854  0.10131  0.90307  Biso   1.000  Zn
  N21      1.0000 0.66260  0.03600  0.95850  Biso   1.000  N
  C51      1.0000 0.70480  0.02150  0.97460  Biso   1.000  C
  C52      1.0000 0.76590  0.04800  0.94340  Biso   1.000  C
  H61      1.0000 0.78050  0.07620  0.90740  Biso   1.000  H
  C53      1.0000 0.79920  0.02360  0.97720  Biso   1.000  C
  H62      1.0000 0.84050  0.04160  0.96710  Biso   1.000  H
  C54      1.0000 0.86100  0.03900  0.95200  Biso   1.000  C
  H63      1.0000 0.86440  0.00330  0.94940  Biso   1.000  H
  H64      1.0000 0.89170  0.06760  0.98380  Biso   1.000  H
  H65      1.0000 0.86850  0.05780  0.90680  Biso   1.000  H
  N22      1.0000 0.74020  0.17200  0.93680  Biso   1.000  N
  C55      1.0000 0.75640  0.19020  0.00120  Biso   1.000  C
  C56      1.0000 0.72490  0.15770  0.06670  Biso   1.000  C
  H66      1.0000 0.68920  0.12010  0.06760  Biso   1.000  H
  C57      1.0000 0.75550  0.19080  0.12720  Biso   1.000  C
  C58      1.0000 0.71000  0.14700  0.17900  Biso   1.000  C
  H67      1.0000 0.70600  0.16850  0.21680  Biso   1.000  H
  H68      1.0000 0.72380  0.11990  0.19530  Biso   1.000  H
  H69      1.0000 0.67130  0.12300  0.15610  Biso   1.000  H
  N23      1.0000 0.59980  0.11270  0.92730  Biso   1.000  N
  C59      1.0000 0.60750  0.15990  0.96120  Biso   1.000  C
  H70      1.0000 0.64340  0.18890  0.98200  Biso   1.000  H
  O11      1.0000 0.46600  0.01330  0.86870  Biso   1.000  O
  N24      1.0000 0.67610  0.08190  0.80610  Biso   1.000  N
  C60      1.0000 0.67670  0.03110  0.78350  Biso   1.000  C
  H71      1.0000 0.67700  0.00150  0.81180  Biso   1.000  H
  O12      1.0000 0.67540  0.18510  0.80490  Biso   1.000  O
  H72      1.0000 0.73770  0.17470  0.17000  Biso   1.000  H
  Zn7      1.0000 0.43277  0.10131  0.59693  Biso   1.000  Zn
  N25      1.0000 0.37340  0.03600  0.54150  Biso   1.000  N
  C61      1.0000 0.31670  0.02150  0.52540  Biso   1.000  C
  C62      1.0000 0.28210  0.04800  0.55660  Biso   1.000  C
  H73      1.0000 0.29570  0.07620  0.59260  Biso   1.000  H
  C63      1.0000 0.22440  0.02360  0.52280  Biso   1.000  C
  H74      1.0000 0.20110  0.04160  0.53290  Biso   1.000  H
  C64      1.0000 0.17800  0.03900  0.54800  Biso   1.000  C
  H75      1.0000 0.13890  0.00330  0.55060  Biso   1.000  H
  H76      1.0000 0.17590  0.06760  0.51620  Biso   1.000  H
  H77      1.0000 0.18930  0.05780  0.59320  Biso   1.000  H
  N26      1.0000 0.43180  0.17200  0.56320  Biso   1.000  N
  C65      1.0000 0.43380  0.19020  0.49880  Biso   1.000  C
  C66      1.0000 0.43280  0.15770  0.43330  Biso   1.000  C
  H78      1.0000 0.43090  0.12010  0.43240  Biso   1.000  H
  C67      1.0000 0.43530  0.19080  0.37280  Biso   1.000  C
  C68      1.0000 0.43700  0.14700  0.32100  Biso   1.000  C
  H79      1.0000 0.46250  0.16850  0.28320  Biso   1.000  H
  H80      1.0000 0.39610  0.11990  0.30470  Biso   1.000  H
  H81      1.0000 0.45170  0.12300  0.34390  Biso   1.000  H
  N27      1.0000 0.51290  0.11270  0.57270  Biso   1.000  N
  C69      1.0000 0.55240  0.15990  0.53880  Biso   1.000  C
  H82      1.0000 0.54550  0.18890  0.51800  Biso   1.000  H
  O13      1.0000 0.54730  0.01330  0.63130  Biso   1.000  O
  N28      1.0000 0.40580  0.08190  0.69390  Biso   1.000  N
  C70      1.0000 0.35440  0.03110  0.71650  Biso   1.000  C
  H83      1.0000 0.32450  0.00150  0.68820  Biso   1.000  H
  O14      1.0000 0.50970  0.18510  0.69510  Biso   1.000  O
  H84      1.0000 0.43700  0.17470  0.33000  Biso   1.000  H
  Zn8      1.0000 0.66854  0.56723  0.59693  Biso   1.000  Zn
  N29      1.0000 0.66260  0.62660  0.54150  Biso   1.000  N
  C71      1.0000 0.70480  0.68330  0.52540  Biso   1.000  C
  C72      1.0000 0.76590  0.71790  0.55660  Biso   1.000  C
  H85      1.0000 0.78050  0.70430  0.59260  Biso   1.000  H
  C73      1.0000 0.79920  0.77560  0.52280  Biso   1.000  C
  H86      1.0000 0.84050  0.79890  0.53290  Biso   1.000  H
  C74      1.0000 0.86100  0.82200  0.54800  Biso   1.000  C
  H87      1.0000 0.86440  0.86110  0.55060  Biso   1.000  H
  H88      1.0000 0.89170  0.82410  0.51620  Biso   1.000  H
  H89      1.0000 0.86850  0.81070  0.59320  Biso   1.000  H
  N30      1.0000 0.74020  0.56820  0.56320  Biso   1.000  N
  C75      1.0000 0.75640  0.56620  0.49880  Biso   1.000  C
  C76      1.0000 0.72490  0.56720  0.43330  Biso   1.000  C
  H90      1.0000 0.68920  0.56910  0.43240  Biso   1.000  H
  C77      1.0000 0.75550  0.56470  0.37280  Biso   1.000  C
  C78      1.0000 0.71000  0.56300  0.32100  Biso   1.000  C
  H91      1.0000 0.70600  0.53750  0.28320  Biso   1.000  H
  H92      1.0000 0.72380  0.60390  0.30470  Biso   1.000  H
  H93      1.0000 0.67130  0.54830  0.34390  Biso   1.000  H
  N31      1.0000 0.59980  0.48710  0.57270  Biso   1.000  N
  C79      1.0000 0.60750  0.44760  0.53880  Biso   1.000  C
  H94      1.0000 0.64340  0.45450  0.51800  Biso   1.000  H
  O15      1.0000 0.46600  0.45270  0.63130  Biso   1.000  O
  N32      1.0000 0.67610  0.59420  0.69390  Biso   1.000  N
  C80      1.0000 0.67670  0.64560  0.71650  Biso   1.000  C
  H95      1.0000 0.67700  0.67550  0.68820  Biso   1.000  H
  O16      1.0000 0.67540  0.49030  0.69510  Biso   1.000  O
  H96      1.0000 0.73770  0.56300  0.33000  Biso   1.000  H
  Zn9      1.0000 0.89869  0.33146  0.59693  Biso   1.000  Zn
  N33      1.0000 0.96400  0.33740  0.54150  Biso   1.000  N
  C81      1.0000 0.97850  0.29520  0.52540  Biso   1.000  C
  C82      1.0000 0.95200  0.23410  0.55660  Biso   1.000  C
  H97      1.0000 0.92380  0.21950  0.59260  Biso   1.000  H
  C83      1.0000 0.97640  0.20080  0.52280  Biso   1.000  C
  H98      1.0000 0.95840  0.15950  0.53290  Biso   1.000  H
  C84      1.0000 0.96100  0.13900  0.54800  Biso   1.000  C
  H99      1.0000 0.99670  0.13560  0.55060  Biso   1.000  H
  H100     1.0000 0.93240  0.10830  0.51620  Biso   1.000  H
  H101     1.0000 0.94220  0.13150  0.59320  Biso   1.000  H
  N34      1.0000 0.82800  0.25980  0.56320  Biso   1.000  N
  C85      1.0000 0.80980  0.24360  0.49880  Biso   1.000  C
  C86      1.0000 0.84230  0.27510  0.43330  Biso   1.000  C
  H102     1.0000 0.87990  0.31080  0.43240  Biso   1.000  H
  C87      1.0000 0.80920  0.24450  0.37280  Biso   1.000  C
  C88      1.0000 0.85300  0.29000  0.32100  Biso   1.000  C
  H103     1.0000 0.83150  0.29400  0.28320  Biso   1.000  H
  H104     1.0000 0.88010  0.27620  0.30470  Biso   1.000  H
  H105     1.0000 0.87700  0.32870  0.34390  Biso   1.000  H
  N35      1.0000 0.88730  0.40020  0.57270  Biso   1.000  N
  C89      1.0000 0.84010  0.39250  0.53880  Biso   1.000  C
  H106     1.0000 0.81110  0.35660  0.51800  Biso   1.000  H
  O17      1.0000 0.98670  0.53400  0.63130  Biso   1.000  O
  N36      1.0000 0.91810  0.32390  0.69390  Biso   1.000  N
  C90      1.0000 0.96890  0.32330  0.71650  Biso   1.000  C
  H107     1.0000 0.99850  0.32300  0.68820  Biso   1.000  H
  O18      1.0000 0.81490  0.32460  0.69510  Biso   1.000  O
  H108     1.0000 0.82530  0.26230  0.33000  Biso   1.000  H
  Zn10     1.0000 0.56723  0.89869  0.09693  Biso   1.000  Zn
  N37      1.0000 0.62660  0.96400  0.04150  Biso   1.000  N
  C91      1.0000 0.68330  0.97850  0.02540  Biso   1.000  C
  C92      1.0000 0.71790  0.95200  0.05660  Biso   1.000  C
  H109     1.0000 0.70430  0.92380  0.09260  Biso   1.000  H
  C93      1.0000 0.77560  0.97640  0.02280  Biso   1.000  C
  H110     1.0000 0.79890  0.95840  0.03290  Biso   1.000  H
  C94      1.0000 0.82200  0.96100  0.04800  Biso   1.000  C
  H111     1.0000 0.86110  0.99670  0.05060  Biso   1.000  H
  H112     1.0000 0.82410  0.93240  0.01620  Biso   1.000  H
  H113     1.0000 0.81070  0.94220  0.09320  Biso   1.000  H
  N38      1.0000 0.56820  0.82800  0.06320  Biso   1.000  N
  C95      1.0000 0.56620  0.80980  0.99880  Biso   1.000  C
  C96      1.0000 0.56720  0.84230  0.93330  Biso   1.000  C
  H114     1.0000 0.56910  0.87990  0.93240  Biso   1.000  H
  C97      1.0000 0.56470  0.80920  0.87280  Biso   1.000  C
  C98      1.0000 0.56300  0.85300  0.82100  Biso   1.000  C
  H115     1.0000 0.53750  0.83150  0.78320  Biso   1.000  H
  H116     1.0000 0.60390  0.88010  0.80470  Biso   1.000  H
  H117     1.0000 0.54830  0.87700  0.84390  Biso   1.000  H
  N39      1.0000 0.48710  0.88730  0.07270  Biso   1.000  N
  C99      1.0000 0.44760  0.84010  0.03880  Biso   1.000  C
  H118     1.0000 0.45450  0.81110  0.01800  Biso   1.000  H
  O19      1.0000 0.45270  0.98670  0.13130  Biso   1.000  O
  N40      1.0000 0.59420  0.91810  0.19390  Biso   1.000  N
  C100     1.0000 0.64560  0.96890  0.21650  Biso   1.000  C
  H119     1.0000 0.67550  0.99850  0.18820  Biso   1.000  H
  O20      1.0000 0.49030  0.81490  0.19510  Biso   1.000  O
  H120     1.0000 0.56300  0.82530  0.83000  Biso   1.000  H
  Zn11     1.0000 0.33146  0.43277  0.09693  Biso   1.000  Zn
  N41      1.0000 0.33740  0.37340  0.04150  Biso   1.000  N
  C101     1.0000 0.29520  0.31670  0.02540  Biso   1.000  C
  C102     1.0000 0.23410  0.28210  0.05660  Biso   1.000  C
  H121     1.0000 0.21950  0.29570  0.09260  Biso   1.000  H
  C103     1.0000 0.20080  0.22440  0.02280  Biso   1.000  C
  H122     1.0000 0.15950  0.20110  0.03290  Biso   1.000  H
  C104     1.0000 0.13900  0.17800  0.04800  Biso   1.000  C
  H123     1.0000 0.13560  0.13890  0.05060  Biso   1.000  H
  H124     1.0000 0.10830  0.17590  0.01620  Biso   1.000  H
  H125     1.0000 0.13150  0.18930  0.09320  Biso   1.000  H
  N42      1.0000 0.25980  0.43180  0.06320  Biso   1.000  N
  C105     1.0000 0.24360  0.43380  0.99880  Biso   1.000  C
  C106     1.0000 0.27510  0.43280  0.93330  Biso   1.000  C
  H126     1.0000 0.31080  0.43090  0.93240  Biso   1.000  H
  C107     1.0000 0.24450  0.43530  0.87280  Biso   1.000  C
  C108     1.0000 0.29000  0.43700  0.82100  Biso   1.000  C
  H127     1.0000 0.29400  0.46250  0.78320  Biso   1.000  H
  H128     1.0000 0.27620  0.39610  0.80470  Biso   1.000  H
  H129     1.0000 0.32870  0.45170  0.84390  Biso   1.000  H
  N43      1.0000 0.40020  0.51290  0.07270  Biso   1.000  N
  C109     1.0000 0.39250  0.55240  0.03880  Biso   1.000  C
  H130     1.0000 0.35660  0.54550  0.01800  Biso   1.000  H
  O21      1.0000 0.53400  0.54730  0.13130  Biso   1.000  O
  N44      1.0000 0.32390  0.40580  0.19390  Biso   1.000  N
  C110     1.0000 0.32330  0.35440  0.21650  Biso   1.000  C
  H131     1.0000 0.32300  0.32450  0.18820  Biso   1.000  H
  O22      1.0000 0.32460  0.50970  0.19510  Biso   1.000  O
  H132     1.0000 0.26230  0.43700  0.83000  Biso   1.000  H
  Zn12     1.0000 0.10131  0.66854  0.09693  Biso   1.000  Zn
  N45      1.0000 0.03600  0.66260  0.04150  Biso   1.000  N
  C111     1.0000 0.02150  0.70480  0.02540  Biso   1.000  C
  C112     1.0000 0.04800  0.76590  0.05660  Biso   1.000  C
  H133     1.0000 0.07620  0.78050  0.09260  Biso   1.000  H
  C113     1.0000 0.02360  0.79920  0.02280  Biso   1.000  C
  H134     1.0000 0.04160  0.84050  0.03290  Biso   1.000  H
  C114     1.0000 0.03900  0.86100  0.04800  Biso   1.000  C
  H135     1.0000 0.00330  0.86440  0.05060  Biso   1.000  H
  H136     1.0000 0.06760  0.89170  0.01620  Biso   1.000  H
  H137     1.0000 0.05780  0.86850  0.09320  Biso   1.000  H
  N46      1.0000 0.17200  0.74020  0.06320  Biso   1.000  N
  C115     1.0000 0.19020  0.75640  0.99880  Biso   1.000  C
  C116     1.0000 0.15770  0.72490  0.93330  Biso   1.000  C
  H138     1.0000 0.12010  0.68920  0.93240  Biso   1.000  H
  C117     1.0000 0.19080  0.75550  0.87280  Biso   1.000  C
  C118     1.0000 0.14700  0.71000  0.82100  Biso   1.000  C
  H139     1.0000 0.16850  0.70600  0.78320  Biso   1.000  H
  H140     1.0000 0.11990  0.72380  0.80470  Biso   1.000  H
  H141     1.0000 0.12300  0.67130  0.84390  Biso   1.000  H
  N47      1.0000 0.11270  0.59980  0.07270  Biso   1.000  N
  C119     1.0000 0.15990  0.60750  0.03880  Biso   1.000  C
  H142     1.0000 0.18890  0.64340  0.01800  Biso   1.000  H
  O23      1.0000 0.01330  0.46600  0.13130  Biso   1.000  O
  N48      1.0000 0.08190  0.67610  0.19390  Biso   1.000  N
  C120     1.0000 0.03110  0.67670  0.21650  Biso   1.000  C
  H143     1.0000 0.00150  0.67700  0.18820  Biso   1.000  H
  O24      1.0000 0.18510  0.67540  0.19510  Biso   1.000  O
  H144     1.0000 0.17470  0.73770  0.83000  Biso   1.000  H
  Zn13     1.0000 0.89869  0.56723  0.59693  Biso   1.000  Zn
  N49      1.0000 0.96400  0.62660  0.54150  Biso   1.000  N
  C121     1.0000 0.97850  0.68330  0.52540  Biso   1.000  C
  C122     1.0000 0.95200  0.71790  0.55660  Biso   1.000  C
  H145     1.0000 0.92380  0.70430  0.59260  Biso   1.000  H
  C123     1.0000 0.97640  0.77560  0.52280  Biso   1.000  C
  H146     1.0000 0.95840  0.79890  0.53290  Biso   1.000  H
  C124     1.0000 0.96100  0.82200  0.54800  Biso   1.000  C
  H147     1.0000 0.99670  0.86110  0.55060  Biso   1.000  H
  H148     1.0000 0.93240  0.82410  0.51620  Biso   1.000  H
  H149     1.0000 0.94220  0.81070  0.59320  Biso   1.000  H
  N50      1.0000 0.82800  0.56820  0.56320  Biso   1.000  N
  C125     1.0000 0.80980  0.56620  0.49880  Biso   1.000  C
  C126     1.0000 0.84230  0.56720  0.43330  Biso   1.000  C
  H150     1.0000 0.87990  0.56910  0.43240  Biso   1.000  H
  C127     1.0000 0.80920  0.56470  0.37280  Biso   1.000  C
  C128     1.0000 0.85300  0.56300  0.32100  Biso   1.000  C
  H151     1.0000 0.83150  0.53750  0.28320  Biso   1.000  H
  H152     1.0000 0.88010  0.60390  0.30470  Biso   1.000  H
  H153     1.0000 0.87700  0.54830  0.34390  Biso   1.000  H
  N51      1.0000 0.88730  0.48710  0.57270  Biso   1.000  N
  C129     1.0000 0.84010  0.44760  0.53880  Biso   1.000  C
  H154     1.0000 0.81110  0.45450  0.51800  Biso   1.000  H
  O25      1.0000 0.98670  0.45270  0.63130  Biso   1.000  O
  N52      1.0000 0.91810  0.59420  0.69390  Biso   1.000  N
  C130     1.0000 0.96890  0.64560  0.71650  Biso   1.000  C
  H155     1.0000 0.99850  0.67550  0.68820  Biso   1.000  H
  O26      1.0000 0.81490  0.49030  0.69510  Biso   1.000  O
  H156     1.0000 0.82530  0.56300  0.33000  Biso   1.000  H
  Zn14     1.0000 0.43277  0.33146  0.59693  Biso   1.000  Zn
  N53      1.0000 0.37340  0.33740  0.54150  Biso   1.000  N
  C131     1.0000 0.31670  0.29520  0.52540  Biso   1.000  C
  C132     1.0000 0.28210  0.23410  0.55660  Biso   1.000  C
  H157     1.0000 0.29570  0.21950  0.59260  Biso   1.000  H
  C133     1.0000 0.22440  0.20080  0.52280  Biso   1.000  C
  H158     1.0000 0.20110  0.15950  0.53290  Biso   1.000  H
  C134     1.0000 0.17800  0.13900  0.54800  Biso   1.000  C
  H159     1.0000 0.13890  0.13560  0.55060  Biso   1.000  H
  H160     1.0000 0.17590  0.10830  0.51620  Biso   1.000  H
  H161     1.0000 0.18930  0.13150  0.59320  Biso   1.000  H
  N54      1.0000 0.43180  0.25980  0.56320  Biso   1.000  N
  C135     1.0000 0.43380  0.24360  0.49880  Biso   1.000  C
  C136     1.0000 0.43280  0.27510  0.43330  Biso   1.000  C
  H162     1.0000 0.43090  0.31080  0.43240  Biso   1.000  H
  C137     1.0000 0.43530  0.24450  0.37280  Biso   1.000  C
  C138     1.0000 0.43700  0.29000  0.32100  Biso   1.000  C
  H163     1.0000 0.46250  0.29400  0.28320  Biso   1.000  H
  H164     1.0000 0.39610  0.27620  0.30470  Biso   1.000  H
  H165     1.0000 0.45170  0.32870  0.34390  Biso   1.000  H
  N55      1.0000 0.51290  0.40020  0.57270  Biso   1.000  N
  C139     1.0000 0.55240  0.39250  0.53880  Biso   1.000  C
  H166     1.0000 0.54550  0.35660  0.51800  Biso   1.000  H
  O27      1.0000 0.54730  0.53400  0.63130  Biso   1.000  O
  N56      1.0000 0.40580  0.32390  0.69390  Biso   1.000  N
  C140     1.0000 0.35440  0.32330  0.71650  Biso   1.000  C
  H167     1.0000 0.32450  0.32300  0.68820  Biso   1.000  H
  O28      1.0000 0.50970  0.32460  0.69510  Biso   1.000  O
  H168     1.0000 0.43700  0.26230  0.33000  Biso   1.000  H
  Zn15     1.0000 0.66854  0.10131  0.59693  Biso   1.000  Zn
  N57      1.0000 0.66260  0.03600  0.54150  Biso   1.000  N
  C141     1.0000 0.70480  0.02150  0.52540  Biso   1.000  C
  C142     1.0000 0.76590  0.04800  0.55660  Biso   1.000  C
  H169     1.0000 0.78050  0.07620  0.59260  Biso   1.000  H
  C143     1.0000 0.79920  0.02360  0.52280  Biso   1.000  C
  H170     1.0000 0.84050  0.04160  0.53290  Biso   1.000  H
  C144     1.0000 0.86100  0.03900  0.54800  Biso   1.000  C
  H171     1.0000 0.86440  0.00330  0.55060  Biso   1.000  H
  H172     1.0000 0.89170  0.06760  0.51620  Biso   1.000  H
  H173     1.0000 0.86850  0.05780  0.59320  Biso   1.000  H
  N58      1.0000 0.74020  0.17200  0.56320  Biso   1.000  N
  C145     1.0000 0.75640  0.19020  0.49880  Biso   1.000  C
  C146     1.0000 0.72490  0.15770  0.43330  Biso   1.000  C
  H174     1.0000 0.68920  0.12010  0.43240  Biso   1.000  H
  C147     1.0000 0.75550  0.19080  0.37280  Biso   1.000  C
  C148     1.0000 0.71000  0.14700  0.32100  Biso   1.000  C
  H175     1.0000 0.70600  0.16850  0.28320  Biso   1.000  H
  H176     1.0000 0.72380  0.11990  0.30470  Biso   1.000  H
  H177     1.0000 0.67130  0.12300  0.34390  Biso   1.000  H
  N59      1.0000 0.59980  0.11270  0.57270  Biso   1.000  N
  C149     1.0000 0.60750  0.15990  0.53880  Biso   1.000  C
  H178     1.0000 0.64340  0.18890  0.51800  Biso   1.000  H
  O29      1.0000 0.46600  0.01330  0.63130  Biso   1.000  O
  N60      1.0000 0.67610  0.08190  0.69390  Biso   1.000  N
  C150     1.0000 0.67670  0.03110  0.71650  Biso   1.000  C
  H179     1.0000 0.67700  0.00150  0.68820  Biso   1.000  H
  O30      1.0000 0.67540  0.18510  0.69510  Biso   1.000  O
  H180     1.0000 0.73770  0.17470  0.33000  Biso   1.000  H
  Zn16     1.0000 0.10131  0.43277  0.09693  Biso   1.000  Zn
  N61      1.0000 0.03600  0.37340  0.04150  Biso   1.000  N
  C151     1.0000 0.02150  0.31670  0.02540  Biso   1.000  C
  C152     1.0000 0.04800  0.28210  0.05660  Biso   1.000  C
  H181     1.0000 0.07620  0.29570  0.09260  Biso   1.000  H
  C153     1.0000 0.02360  0.22440  0.02280  Biso   1.000  C
  H182     1.0000 0.04160  0.20110  0.03290  Biso   1.000  H
  C154     1.0000 0.03900  0.17800  0.04800  Biso   1.000  C
  H183     1.0000 0.00330  0.13890  0.05060  Biso   1.000  H
  H184     1.0000 0.06760  0.17590  0.01620  Biso   1.000  H
  H185     1.0000 0.05780  0.18930  0.09320  Biso   1.000  H
  N62      1.0000 0.17200  0.43180  0.06320  Biso   1.000  N
  C155     1.0000 0.19020  0.43380  0.99880  Biso   1.000  C
  C156     1.0000 0.15770  0.43280  0.93330  Biso   1.000  C
  H186     1.0000 0.12010  0.43090  0.93240  Biso   1.000  H
  C157     1.0000 0.19080  0.43530  0.87280  Biso   1.000  C
  C158     1.0000 0.14700  0.43700  0.82100  Biso   1.000  C
  H187     1.0000 0.16850  0.46250  0.78320  Biso   1.000  H
  H188     1.0000 0.11990  0.39610  0.80470  Biso   1.000  H
  H189     1.0000 0.12300  0.45170  0.84390  Biso   1.000  H
  N63      1.0000 0.11270  0.51290  0.07270  Biso   1.000  N
  C159     1.0000 0.15990  0.55240  0.03880  Biso   1.000  C
  H190     1.0000 0.18890  0.54550  0.01800  Biso   1.000  H
  O31      1.0000 0.01330  0.54730  0.13130  Biso   1.000  O
  N64      1.0000 0.08190  0.40580  0.19390  Biso   1.000  N
  C160     1.0000 0.03110  0.35440  0.21650  Biso   1.000  C
  H191     1.0000 0.00150  0.32450  0.18820  Biso   1.000  H
  O32      1.0000 0.18510  0.50970  0.19510  Biso   1.000  O
  H192     1.0000 0.17470  0.43700  0.83000  Biso   1.000  H
  Zn17     1.0000 0.56723  0.66854  0.09693  Biso   1.000  Zn
  N65      1.0000 0.62660  0.66260  0.04150  Biso   1.000  N
  C161     1.0000 0.68330  0.70480  0.02540  Biso   1.000  C
  C162     1.0000 0.71790  0.76590  0.05660  Biso   1.000  C
  H193     1.0000 0.70430  0.78050  0.09260  Biso   1.000  H
  C163     1.0000 0.77560  0.79920  0.02280  Biso   1.000  C
  H194     1.0000 0.79890  0.84050  0.03290  Biso   1.000  H
  C164     1.0000 0.82200  0.86100  0.04800  Biso   1.000  C
  H195     1.0000 0.86110  0.86440  0.05060  Biso   1.000  H
  H196     1.0000 0.82410  0.89170  0.01620  Biso   1.000  H
  H197     1.0000 0.81070  0.86850  0.09320  Biso   1.000  H
  N66      1.0000 0.56820  0.74020  0.06320  Biso   1.000  N
  C165     1.0000 0.56620  0.75640  0.99880  Biso   1.000  C
  C166     1.0000 0.56720  0.72490  0.93330  Biso   1.000  C
  H198     1.0000 0.56910  0.68920  0.93240  Biso   1.000  H
  C167     1.0000 0.56470  0.75550  0.87280  Biso   1.000  C
  C168     1.0000 0.56300  0.71000  0.82100  Biso   1.000  C
  H199     1.0000 0.53750  0.70600  0.78320  Biso   1.000  H
  H200     1.0000 0.60390  0.72380  0.80470  Biso   1.000  H
  H201     1.0000 0.54830  0.67130  0.84390  Biso   1.000  H
  N67      1.0000 0.48710  0.59980  0.07270  Biso   1.000  N
  C169     1.0000 0.44760  0.60750  0.03880  Biso   1.000  C
  H202     1.0000 0.45450  0.64340  0.01800  Biso   1.000  H
  O33      1.0000 0.45270  0.46600  0.13130  Biso   1.000  O
  N68      1.0000 0.59420  0.67610  0.19390  Biso   1.000  N
  C170     1.0000 0.64560  0.67670  0.21650  Biso   1.000  C
  H203     1.0000 0.67550  0.67700  0.18820  Biso   1.000  H
  O34      1.0000 0.49030  0.67540  0.19510  Biso   1.000  O
  H204     1.0000 0.56300  0.73770  0.83000  Biso   1.000  H
  Zn18     1.0000 0.33146  0.89869  0.09693  Biso   1.000  Zn
  N69      1.0000 0.33740  0.96400  0.04150  Biso   1.000  N
  C171     1.0000 0.29520  0.97850  0.02540  Biso   1.000  C
  C172     1.0000 0.23410  0.95200  0.05660  Biso   1.000  C
  H205     1.0000 0.21950  0.92380  0.09260  Biso   1.000  H
  C173     1.0000 0.20080  0.97640  0.02280  Biso   1.000  C
  H206     1.0000 0.15950  0.95840  0.03290  Biso   1.000  H
  C174     1.0000 0.13900  0.96100  0.04800  Biso   1.000  C
  H207     1.0000 0.13560  0.99670  0.05060  Biso   1.000  H
  H208     1.0000 0.10830  0.93240  0.01620  Biso   1.000  H
  H209     1.0000 0.13150  0.94220  0.09320  Biso   1.000  H
  N70      1.0000 0.25980  0.82800  0.06320  Biso   1.000  N
  C175     1.0000 0.24360  0.80980  0.99880  Biso   1.000  C
  C176     1.0000 0.27510  0.84230  0.93330  Biso   1.000  C
  H210     1.0000 0.31080  0.87990  0.93240  Biso   1.000  H
  C177     1.0000 0.24450  0.80920  0.87280  Biso   1.000  C
  C178     1.0000 0.29000  0.85300  0.82100  Biso   1.000  C
  H211     1.0000 0.29400  0.83150  0.78320  Biso   1.000  H
  H212     1.0000 0.27620  0.88010  0.80470  Biso   1.000  H
  H213     1.0000 0.32870  0.87700  0.84390  Biso   1.000  H
  N71      1.0000 0.40020  0.88730  0.07270  Biso   1.000  N
  C179     1.0000 0.39250  0.84010  0.03880  Biso   1.000  C
  H214     1.0000 0.35660  0.81110  0.01800  Biso   1.000  H
  O35      1.0000 0.53400  0.98670  0.13130  Biso   1.000  O
  N72      1.0000 0.32390  0.91810  0.19390  Biso   1.000  N
  C180     1.0000 0.32330  0.96890  0.21650  Biso   1.000  C
  H215     1.0000 0.32300  0.99850  0.18820  Biso   1.000  H
  O36      1.0000 0.32460  0.81490  0.19510  Biso   1.000  O
  H216     1.0000 0.26230  0.82530  0.83000  Biso   1.000  H
  Zn19     1.0000 0.56723  0.89869  0.40307  Biso   1.000  Zn
  N73      1.0000 0.62660  0.96400  0.45850  Biso   1.000  N
  C181     1.0000 0.68330  0.97850  0.47460  Biso   1.000  C
  C182     1.0000 0.71790  0.95200  0.44340  Biso   1.000  C
  H217     1.0000 0.70430  0.92380  0.40740  Biso   1.000  H
  C183     1.0000 0.77560  0.97640  0.47720  Biso   1.000  C
  H218     1.0000 0.79890  0.95840  0.46710  Biso   1.000  H
  C184     1.0000 0.82200  0.96100  0.45200  Biso   1.000  C
  H219     1.0000 0.86110  0.99670  0.44940  Biso   1.000  H
  H220     1.0000 0.82410  0.93240  0.48380  Biso   1.000  H
  H221     1.0000 0.81070  0.94220  0.40680  Biso   1.000  H
  N74      1.0000 0.56820  0.82800  0.43680  Biso   1.000  N
  C185     1.0000 0.56620  0.80980  0.50120  Biso   1.000  C
  C186     1.0000 0.56720  0.84230  0.56670  Biso   1.000  C
  H222     1.0000 0.56910  0.87990  0.56760  Biso   1.000  H
  C187     1.0000 0.56470  0.80920  0.62720  Biso   1.000  C
  C188     1.0000 0.56300  0.85300  0.67900  Biso   1.000  C
  H223     1.0000 0.53750  0.83150  0.71680  Biso   1.000  H
  H224     1.0000 0.60390  0.88010  0.69530  Biso   1.000  H
  H225     1.0000 0.54830  0.87700  0.65610  Biso   1.000  H
  N75      1.0000 0.48710  0.88730  0.42730  Biso   1.000  N
  C189     1.0000 0.44760  0.84010  0.46120  Biso   1.000  C
  H226     1.0000 0.45450  0.81110  0.48200  Biso   1.000  H
  O37      1.0000 0.45270  0.98670  0.36870  Biso   1.000  O
  N76      1.0000 0.59420  0.91810  0.30610  Biso   1.000  N
  C190     1.0000 0.64560  0.96890  0.28350  Biso   1.000  C
  H227     1.0000 0.67550  0.99850  0.31180  Biso   1.000  H
  O38      1.0000 0.49030  0.81490  0.30490  Biso   1.000  O
  H228     1.0000 0.56300  0.82530  0.67000  Biso   1.000  H
  Zn20     1.0000 0.33146  0.43277  0.40307  Biso   1.000  Zn
  N77      1.0000 0.33740  0.37340  0.45850  Biso   1.000  N
  C191     1.0000 0.29520  0.31670  0.47460  Biso   1.000  C
  C192     1.0000 0.23410  0.28210  0.44340  Biso   1.000  C
  H229     1.0000 0.21950  0.29570  0.40740  Biso   1.000  H
  C193     1.0000 0.20080  0.22440  0.47720  Biso   1.000  C
  H230     1.0000 0.15950  0.20110  0.46710  Biso   1.000  H
  C194     1.0000 0.13900  0.17800  0.45200  Biso   1.000  C
  H231     1.0000 0.13560  0.13890  0.44940  Biso   1.000  H
  H232     1.0000 0.10830  0.17590  0.48380  Biso   1.000  H
  H233     1.0000 0.13150  0.18930  0.40680  Biso   1.000  H
  N78      1.0000 0.25980  0.43180  0.43680  Biso   1.000  N
  C195     1.0000 0.24360  0.43380  0.50120  Biso   1.000  C
  C196     1.0000 0.27510  0.43280  0.56670  Biso   1.000  C
  H234     1.0000 0.31080  0.43090  0.56760  Biso   1.000  H
  C197     1.0000 0.24450  0.43530  0.62720  Biso   1.000  C
  C198     1.0000 0.29000  0.43700  0.67900  Biso   1.000  C
  H235     1.0000 0.29400  0.46250  0.71680  Biso   1.000  H
  H236     1.0000 0.27620  0.39610  0.69530  Biso   1.000  H
  H237     1.0000 0.32870  0.45170  0.65610  Biso   1.000  H
  N79      1.0000 0.40020  0.51290  0.42730  Biso   1.000  N
  C199     1.0000 0.39250  0.55240  0.46120  Biso   1.000  C
  H238     1.0000 0.35660  0.54550  0.48200  Biso   1.000  H
  O39      1.0000 0.53400  0.54730  0.36870  Biso   1.000  O
  N80      1.0000 0.32390  0.40580  0.30610  Biso   1.000  N
  C200     1.0000 0.32330  0.35440  0.28350  Biso   1.000  C
  H239     1.0000 0.32300  0.32450  0.31180  Biso   1.000  H
  O40      1.0000 0.32460  0.50970  0.30490  Biso   1.000  O
  H240     1.0000 0.26230  0.43700  0.67000  Biso   1.000  H
  Zn21     1.0000 0.10131  0.66854  0.40307  Biso   1.000  Zn
  N81      1.0000 0.03600  0.66260  0.45850  Biso   1.000  N
  C201     1.0000 0.02150  0.70480  0.47460  Biso   1.000  C
  C202     1.0000 0.04800  0.76590  0.44340  Biso   1.000  C
  H241     1.0000 0.07620  0.78050  0.40740  Biso   1.000  H
  C203     1.0000 0.02360  0.79920  0.47720  Biso   1.000  C
  H242     1.0000 0.04160  0.84050  0.46710  Biso   1.000  H
  C204     1.0000 0.03900  0.86100  0.45200  Biso   1.000  C
  H243     1.0000 0.00330  0.86440  0.44940  Biso   1.000  H
  H244     1.0000 0.06760  0.89170  0.48380  Biso   1.000  H
  H245     1.0000 0.05780  0.86850  0.40680  Biso   1.000  H
  N82      1.0000 0.17200  0.74020  0.43680  Biso   1.000  N
  C205     1.0000 0.19020  0.75640  0.50120  Biso   1.000  C
  C206     1.0000 0.15770  0.72490  0.56670  Biso   1.000  C
  H246     1.0000 0.12010  0.68920  0.56760  Biso   1.000  H
  C207     1.0000 0.19080  0.75550  0.62720  Biso   1.000  C
  C208     1.0000 0.14700  0.71000  0.67900  Biso   1.000  C
  H247     1.0000 0.16850  0.70600  0.71680  Biso   1.000  H
  H248     1.0000 0.11990  0.72380  0.69530  Biso   1.000  H
  H249     1.0000 0.12300  0.67130  0.65610  Biso   1.000  H
  N83      1.0000 0.11270  0.59980  0.42730  Biso   1.000  N
  C209     1.0000 0.15990  0.60750  0.46120  Biso   1.000  C
  H250     1.0000 0.18890  0.64340  0.48200  Biso   1.000  H
  O41      1.0000 0.01330  0.46600  0.36870  Biso   1.000  O
  N84      1.0000 0.08190  0.67610  0.30610  Biso   1.000  N
  C210     1.0000 0.03110  0.67670  0.28350  Biso   1.000  C
  H251     1.0000 0.00150  0.67700  0.31180  Biso   1.000  H
  O42      1.0000 0.18510  0.67540  0.30490  Biso   1.000  O
  H252     1.0000 0.17470  0.73770  0.67000  Biso   1.000  H
  Zn22     1.0000 0.43277  0.10131  0.90307  Biso   1.000  Zn
  N85      1.0000 0.37340  0.03600  0.95850  Biso   1.000  N
  C211     1.0000 0.31670  0.02150  0.97460  Biso   1.000  C
  C212     1.0000 0.28210  0.04800  0.94340  Biso   1.000  C
  H253     1.0000 0.29570  0.07620  0.90740  Biso   1.000  H
  C213     1.0000 0.22440  0.02360  0.97720  Biso   1.000  C
  H254     1.0000 0.20110  0.04160  0.96710  Biso   1.000  H
  C214     1.0000 0.17800  0.03900  0.95200  Biso   1.000  C
  H255     1.0000 0.13890  0.00330  0.94940  Biso   1.000  H
  H256     1.0000 0.17590  0.06760  0.98380  Biso   1.000  H
  H257     1.0000 0.18930  0.05780  0.90680  Biso   1.000  H
  N86      1.0000 0.43180  0.17200  0.93680  Biso   1.000  N
  C215     1.0000 0.43380  0.19020  0.00120  Biso   1.000  C
  C216     1.0000 0.43280  0.15770  0.06670  Biso   1.000  C
  H258     1.0000 0.43090  0.12010  0.06760  Biso   1.000  H
  C217     1.0000 0.43530  0.19080  0.12720  Biso   1.000  C
  C218     1.0000 0.43700  0.14700  0.17900  Biso   1.000  C
  H259     1.0000 0.46250  0.16850  0.21680  Biso   1.000  H
  H260     1.0000 0.39610  0.11990  0.19530  Biso   1.000  H
  H261     1.0000 0.45170  0.12300  0.15610  Biso   1.000  H
  N87      1.0000 0.51290  0.11270  0.92730  Biso   1.000  N
  C219     1.0000 0.55240  0.15990  0.96120  Biso   1.000  C
  H262     1.0000 0.54550  0.18890  0.98200  Biso   1.000  H
  O43      1.0000 0.54730  0.01330  0.86870  Biso   1.000  O
  N88      1.0000 0.40580  0.08190  0.80610  Biso   1.000  N
  C220     1.0000 0.35440  0.03110  0.78350  Biso   1.000  C
  H263     1.0000 0.32450  0.00150  0.81180  Biso   1.000  H
  O44      1.0000 0.50970  0.18510  0.80490  Biso   1.000  O
  H264     1.0000 0.43700  0.17470  0.17000  Biso   1.000  H
  Zn23     1.0000 0.66854  0.56723  0.90307  Biso   1.000  Zn
  N89      1.0000 0.66260  0.62660  0.95850  Biso   1.000  N
  C221     1.0000 0.70480  0.68330  0.97460  Biso   1.000  C
  C222     1.0000 0.76590  0.71790  0.94340  Biso   1.000  C
  H265     1.0000 0.78050  0.70430  0.90740  Biso   1.000  H
  C223     1.0000 0.79920  0.77560  0.97720  Biso   1.000  C
  H266     1.0000 0.84050  0.79890  0.96710  Biso   1.000  H
  C224     1.0000 0.86100  0.82200  0.95200  Biso   1.000  C
  H267     1.0000 0.86440  0.86110  0.94940  Biso   1.000  H
  H268     1.0000 0.89170  0.82410  0.98380  Biso   1.000  H
  H269     1.0000 0.86850  0.81070  0.90680  Biso   1.000  H
  N90      1.0000 0.74020  0.56820  0.93680  Biso   1.000  N
  C225     1.0000 0.75640  0.56620  0.00120  Biso   1.000  C
  C226     1.0000 0.72490  0.56720  0.06670  Biso   1.000  C
  H270     1.0000 0.68920  0.56910  0.06760  Biso   1.000  H
  C227     1.0000 0.75550  0.56470  0.12720  Biso   1.000  C
  C228     1.0000 0.71000  0.56300  0.17900  Biso   1.000  C
  H271     1.0000 0.70600  0.53750  0.21680  Biso   1.000  H
  H272     1.0000 0.72380  0.60390  0.19530  Biso   1.000  H
  H273     1.0000 0.67130  0.54830  0.15610  Biso   1.000  H
  N91      1.0000 0.59980  0.48710  0.92730  Biso   1.000  N
  C229     1.0000 0.60750  0.44760  0.96120  Biso   1.000  C
  H274     1.0000 0.64340  0.45450  0.98200  Biso   1.000  H
  O45      1.0000 0.46600  0.45270  0.86870  Biso   1.000  O
  N92      1.0000 0.67610  0.59420  0.80610  Biso   1.000  N
  C230     1.0000 0.67670  0.64560  0.78350  Biso   1.000  C
  H275     1.0000 0.67700  0.67550  0.81180  Biso   1.000  H
  O46      1.0000 0.67540  0.49030  0.80490  Biso   1.000  O
  H276     1.0000 0.73770  0.56300  0.17000  Biso   1.000  H
  Zn24     1.0000 0.89869  0.33146  0.90307  Biso   1.000  Zn
  N93      1.0000 0.96400  0.33740  0.95850  Biso   1.000  N
  C231     1.0000 0.97850  0.29520  0.97460  Biso   1.000  C
  C232     1.0000 0.95200  0.23410  0.94340  Biso   1.000  C
  H277     1.0000 0.92380  0.21950  0.90740  Biso   1.000  H
  C233     1.0000 0.97640  0.20080  0.97720  Biso   1.000  C
  H278     1.0000 0.95840  0.15950  0.96710  Biso   1.000  H
  C234     1.0000 0.96100  0.13900  0.95200  Biso   1.000  C
  H279     1.0000 0.99670  0.13560  0.94940  Biso   1.000  H
  H280     1.0000 0.93240  0.10830  0.98380  Biso   1.000  H
  H281     1.0000 0.94220  0.13150  0.90680  Biso   1.000  H
  N94      1.0000 0.82800  0.25980  0.93680  Biso   1.000  N
  C235     1.0000 0.80980  0.24360  0.00120  Biso   1.000  C
  C236     1.0000 0.84230  0.27510  0.06670  Biso   1.000  C
  H282     1.0000 0.87990  0.31080  0.06760  Biso   1.000  H
  C237     1.0000 0.80920  0.24450  0.12720  Biso   1.000  C
  C238     1.0000 0.85300  0.29000  0.17900  Biso   1.000  C
  H283     1.0000 0.83150  0.29400  0.21680  Biso   1.000  H
  H284     1.0000 0.88010  0.27620  0.19530  Biso   1.000  H
  H285     1.0000 0.87700  0.32870  0.15610  Biso   1.000  H
  N95      1.0000 0.88730  0.40020  0.92730  Biso   1.000  N
  C239     1.0000 0.84010  0.39250  0.96120  Biso   1.000  C
  H286     1.0000 0.81110  0.35660  0.98200  Biso   1.000  H
  O47      1.0000 0.98670  0.53400  0.86870  Biso   1.000  O
  N96      1.0000 0.91810  0.32390  0.80610  Biso   1.000  N
  C240     1.0000 0.96890  0.32330  0.78350  Biso   1.000  C
  H287     1.0000 0.99850  0.32300  0.81180  Biso   1.000  H
  O48      1.0000 0.81490  0.32460  0.80490  Biso   1.000  O
  H288     1.0000 0.82530  0.26230  0.17000  Biso   1.000  H
  C241     1.0000 0.00000  0.38360  0.50000  Biso   1.000  C
  H289     1.0000 0.00000  0.42020  0.50000  Biso   1.000  H
  C242     1.0000 0.61640  0.61640  0.50000  Biso   1.000  C
  H290     1.0000 0.57980  0.57980  0.50000  Biso   1.000  H
  C243     1.0000 0.38360  0.00000  0.50000  Biso   1.000  C
  H291     1.0000 0.42020  0.00000  0.50000  Biso   1.000  H
  C244     1.0000 0.00000  0.61640  0.00000  Biso   1.000  C
  H292     1.0000 0.00000  0.57980  0.00000  Biso   1.000  H
  C245     1.0000 0.38360  0.38360  0.00000  Biso   1.000  C
  H293     1.0000 0.42020  0.42020  0.00000  Biso   1.000  H
  C246     1.0000 0.61640  0.00000  0.00000  Biso   1.000  C
  H294     1.0000 0.57980  0.00000  0.00000  Biso   1.000  H
  C247     1.0000 0.00000  0.61640  0.50000  Biso   1.000  C
  H295     1.0000 0.00000  0.57980  0.50000  Biso   1.000  H
  C248     1.0000 0.38360  0.38360  0.50000  Biso   1.000  C
  H296     1.0000 0.42020  0.42020  0.50000  Biso   1.000  H
  C249     1.0000 0.61640  0.00000  0.50000  Biso   1.000  C
  H297     1.0000 0.57980  0.00000  0.50000  Biso   1.000  H
  C250     1.0000 0.00000  0.38360  0.00000  Biso   1.000  C
  H298     1.0000 0.00000  0.42020  0.00000  Biso   1.000  H
  C251     1.0000 0.61640  0.61640  0.00000  Biso   1.000  C
  H299     1.0000 0.57980  0.57980  0.00000  Biso   1.000  H
  C252     1.0000 0.38360  0.00000  0.00000  Biso   1.000  C
  H300     1.0000 0.42020  0.00000  0.00000  Biso   1.000  H
  C253     1.0000 0.21650  0.43300  0.39970  Biso   1.000  C
  H301     1.0000 0.21735  0.43470  0.35140  Biso   1.000  H
  C254     1.0000 0.56700  0.78350  0.39970  Biso   1.000  C
  H302     1.0000 0.56530  0.78265  0.35140  Biso   1.000  H
  C255     1.0000 0.21650  0.78350  0.39970  Biso   1.000  C
  H303     1.0000 0.21735  0.78265  0.35140  Biso   1.000  H
  C256     1.0000 0.78350  0.56700  0.89970  Biso   1.000  C
  H304     1.0000 0.78265  0.56530  0.85140  Biso   1.000  H
  C257     1.0000 0.43300  0.21650  0.89970  Biso   1.000  C
  H305     1.0000 0.43470  0.21735  0.85140  Biso   1.000  H
  C258     1.0000 0.78350  0.21650  0.89970  Biso   1.000  C
  H306     1.0000 0.78265  0.21735  0.85140  Biso   1.000  H
  C259     1.0000 0.43300  0.21650  0.60030  Biso   1.000  C
  H307     1.0000 0.43470  0.21735  0.64860  Biso   1.000  H
  C260     1.0000 0.78350  0.56700  0.60030  Biso   1.000  C
  H308     1.0000 0.78265  0.56530  0.64860  Biso   1.000  H
  C261     1.0000 0.78350  0.21650  0.60030  Biso   1.000  C
  H309     1.0000 0.78265  0.21735  0.64860  Biso   1.000  H
  C262     1.0000 0.56700  0.78350  0.10030  Biso   1.000  C
  H310     1.0000 0.56530  0.78265  0.14860  Biso   1.000  H
  C263     1.0000 0.21650  0.43300  0.10030  Biso   1.000  C
  H311     1.0000 0.21735  0.43470  0.14860  Biso   1.000  H
  C264     1.0000 0.21650  0.78350  0.10030  Biso   1.000  C
  H312     1.0000 0.21735  0.78265  0.14860  Biso   1.000  H
  C265     1.0000 0.09230  0.54615  0.41310  Biso   1.000  C
  N97      1.0000 0.03900  0.51950  0.37510  Biso   1.000  N
  C266     1.0000 0.45385  0.54615  0.41310  Biso   1.000  C
  N98      1.0000 0.48050  0.51950  0.37510  Biso   1.000  N
  C267     1.0000 0.45385  0.90770  0.41310  Biso   1.000  C
  N99      1.0000 0.48050  0.96100  0.37510  Biso   1.000  N
  C268     1.0000 0.90770  0.45385  0.91310  Biso   1.000  C
  N100     1.0000 0.96100  0.48050  0.87510  Biso   1.000  N
  C269     1.0000 0.54615  0.45385  0.91310  Biso   1.000  C
  N101     1.0000 0.51950  0.48050  0.87510  Biso   1.000  N
  C270     1.0000 0.54615  0.09230  0.91310  Biso   1.000  C
  N102     1.0000 0.51950  0.03900  0.87510  Biso   1.000  N
  C271     1.0000 0.54615  0.09230  0.58690  Biso   1.000  C
  N103     1.0000 0.51950  0.03900  0.62490  Biso   1.000  N
  C272     1.0000 0.54615  0.45385  0.58690  Biso   1.000  C
  N104     1.0000 0.51950  0.48050  0.62490  Biso   1.000  N
  C273     1.0000 0.90770  0.45385  0.58690  Biso   1.000  C
  N105     1.0000 0.96100  0.48050  0.62490  Biso   1.000  N
  C274     1.0000 0.45385  0.90770  0.08690  Biso   1.000  C
  N106     1.0000 0.48050  0.96100  0.12490  Biso   1.000  N
  C275     1.0000 0.45385  0.54615  0.08690  Biso   1.000  C
  N107     1.0000 0.48050  0.51950  0.12490  Biso   1.000  N
  C276     1.0000 0.09230  0.54615  0.08690  Biso   1.000  C
  N108     1.0000 0.03900  0.51950  0.12490  Biso   1.000  N
  C277     1.0000 0.10730  0.43000  0.25000  Biso   1.000  C
  N109     1.0000 0.16130  0.48490  0.25000  Biso   1.000  N
  C278     1.0000 0.57000  0.67730  0.25000  Biso   1.000  C
  N110     1.0000 0.51510  0.67640  0.25000  Biso   1.000  N
  C279     1.0000 0.32270  0.89270  0.25000  Biso   1.000  C
  N111     1.0000 0.32360  0.83870  0.25000  Biso   1.000  N
  C280     1.0000 0.89270  0.57000  0.75000  Biso   1.000  C
  N112     1.0000 0.83870  0.51510  0.75000  Biso   1.000  N
  C281     1.0000 0.43000  0.32270  0.75000  Biso   1.000  C
  N113     1.0000 0.48490  0.32360  0.75000  Biso   1.000  N
  C282     1.0000 0.67730  0.10730  0.75000  Biso   1.000  C
  N114     1.0000 0.67640  0.16130  0.75000  Biso   1.000  N
  C283     1.0000 0.43000  0.10730  0.75000  Biso   1.000  C
  N115     1.0000 0.48490  0.16130  0.75000  Biso   1.000  N
  C284     1.0000 0.67730  0.57000  0.75000  Biso   1.000  C
  N116     1.0000 0.67640  0.51510  0.75000  Biso   1.000  N
  C285     1.0000 0.89270  0.32270  0.75000  Biso   1.000  C
  N117     1.0000 0.83870  0.32360  0.75000  Biso   1.000  N
  C286     1.0000 0.57000  0.89270  0.25000  Biso   1.000  C
  N118     1.0000 0.51510  0.83870  0.25000  Biso   1.000  N
  C287     1.0000 0.32270  0.43000  0.25000  Biso   1.000  C
  N119     1.0000 0.32360  0.48490  0.25000  Biso   1.000  N
  C288     1.0000 0.10730  0.67730  0.25000  Biso   1.000  C
  N120     1.0000 0.16130  0.67640  0.25000  Biso   1.000  N
