data_image0
_cell_length_a       26.1174
_cell_length_b       26.1174
_cell_length_c       19.491
_cell_angle_alpha    90
_cell_angle_beta     90
_cell_angle_gamma    120

_symmetry_space_group_name_H-M    "P 1"
_symmetry_int_tables_number       1

loop_
  _symmetry_equiv_pos_as_xyz
  'x, y, z'

loop_
  _atom_site_label
  _atom_site_occupancy
  _atom_site_fract_x
  _atom_site_fract_y
  _atom_site_fract_z
  _atom_site_thermal_displace_type
  _atom_site_B_iso_or_equiv
  _atom_site_type_symbol
  Zn1      1.0000 0.43551  0.33203  0.59613  Biso   1.000  Zn
  C1       1.0000 0.35820  0.32500  0.71200  Biso   1.000  C
  H1       1.0000 0.32920  0.32580  0.68310  Biso   1.000  H
  N1       1.0000 0.40670  0.32380  0.69150  Biso   1.000  N
  O1       1.0000 0.50810  0.32210  0.69480  Biso   1.000  O
  C2       1.0000 0.55860  0.37770  0.53640  Biso   1.000  C
  H2       1.0000 0.55040  0.33990  0.52090  Biso   1.000  H
  N2       1.0000 0.51820  0.39540  0.56660  Biso   1.000  N
  C3       1.0000 0.54940  0.39850  0.52800  Biso   1.000  C
  H3       1.0000 0.57570  0.41750  0.49070  Biso   1.000  H
  N3       1.0000 0.50920  0.40910  0.59170  Biso   1.000  N
  O2       1.0000 0.54860  0.53320  0.62260  Biso   1.000  O
  O3       1.0000 0.55780  0.52570  0.67730  Biso   1.000  O
  N4       1.0000 0.43170  0.26028  0.56140  Biso   1.000  N
  C4       1.0000 0.42930  0.24120  0.49690  Biso   1.000  C
  C5       1.0000 0.42770  0.26870  0.43480  Biso   1.000  C
  H4       1.0000 0.42760  0.30500  0.43430  Biso   1.000  H
  C6       1.0000 0.42620  0.23980  0.37590  Biso   1.000  C
  H5       1.0000 0.42520  0.25670  0.33310  Biso   1.000  H
  N5       1.0000 0.44000  0.27700  0.31300  Biso   1.000  N
  O4       1.0000 0.42920  0.31440  0.30990  Biso   1.000  O
  N6       1.0000 0.37600  0.33880  0.54020  Biso   1.000  N
  C7       1.0000 0.32010  0.29710  0.52550  Biso   1.000  C
  C8       1.0000 0.28610  0.23890  0.55230  Biso   1.000  C
  H6       1.0000 0.30010  0.22310  0.58660  Biso   1.000  H
  C9       1.0000 0.22960  0.20730  0.52270  Biso   1.000  C
  H7       1.0000 0.20530  0.16720  0.53580  Biso   1.000  H
  N7       1.0000 0.19700  0.14180  0.55310  Biso   1.000  N
  O5       1.0000 0.14340  0.11550  0.51360  Biso   1.000  O
  Zn2      1.0000 0.66797  0.10348  0.59613  Biso   1.000  Zn
  C10      1.0000 0.67500  0.03320  0.71200  Biso   1.000  C
  H8       1.0000 0.67420  0.00340  0.68310  Biso   1.000  H
  N8       1.0000 0.67620  0.08290  0.69150  Biso   1.000  N
  O6       1.0000 0.67790  0.18600  0.69480  Biso   1.000  O
  C11      1.0000 0.62230  0.18090  0.53640  Biso   1.000  C
  H9       1.0000 0.66010  0.21050  0.52090  Biso   1.000  H
  N9       1.0000 0.60460  0.12280  0.56660  Biso   1.000  N
  C12      1.0000 0.60150  0.15090  0.52800  Biso   1.000  C
  H10      1.0000 0.58250  0.15820  0.49070  Biso   1.000  H
  N10      1.0000 0.59090  0.10010  0.59170  Biso   1.000  N
  O7       1.0000 0.46680  0.01540  0.62260  Biso   1.000  O
  O8       1.0000 0.47430  0.03210  0.67730  Biso   1.000  O
  N11      1.0000 0.73972  0.17142  0.56140  Biso   1.000  N
  C13      1.0000 0.75880  0.18810  0.49690  Biso   1.000  C
  C14      1.0000 0.73130  0.15900  0.43480  Biso   1.000  C
  H11      1.0000 0.69500  0.12260  0.43430  Biso   1.000  H
  C15      1.0000 0.76020  0.18640  0.37590  Biso   1.000  C
  H12      1.0000 0.74330  0.16850  0.33310  Biso   1.000  H
  N12      1.0000 0.72300  0.16300  0.31300  Biso   1.000  N
  O9       1.0000 0.68560  0.11480  0.30990  Biso   1.000  O
  N13      1.0000 0.66120  0.03720  0.54020  Biso   1.000  N
  C16      1.0000 0.70290  0.02300  0.52550  Biso   1.000  C
  C17      1.0000 0.76110  0.04720  0.55230  Biso   1.000  C
  H13      1.0000 0.77690  0.07700  0.58660  Biso   1.000  H
  C18      1.0000 0.79270  0.02230  0.52270  Biso   1.000  C
  H14      1.0000 0.83280  0.03810  0.53580  Biso   1.000  H
  N14      1.0000 0.85820  0.05520  0.55310  Biso   1.000  N
  O10      1.0000 0.88450  0.02790  0.51360  Biso   1.000  O
  Zn3      1.0000 0.89652  0.56449  0.59613  Biso   1.000  Zn
  C19      1.0000 0.96680  0.64180  0.71200  Biso   1.000  C
  H15      1.0000 0.99660  0.67080  0.68310  Biso   1.000  H
  N15      1.0000 0.91710  0.59330  0.69150  Biso   1.000  N
  O11      1.0000 0.81400  0.49190  0.69480  Biso   1.000  O
  C20      1.0000 0.81910  0.44140  0.53640  Biso   1.000  C
  H16      1.0000 0.78950  0.44960  0.52090  Biso   1.000  H
  N16      1.0000 0.87720  0.48180  0.56660  Biso   1.000  N
  C21      1.0000 0.84910  0.45060  0.52800  Biso   1.000  C
  H17      1.0000 0.84180  0.42430  0.49070  Biso   1.000  H
  N17      1.0000 0.89990  0.49080  0.59170  Biso   1.000  N
  O12      1.0000 0.98460  0.45140  0.62260  Biso   1.000  O
  O13      1.0000 0.96790  0.44220  0.67730  Biso   1.000  O
  N18      1.0000 0.82858  0.56830  0.56140  Biso   1.000  N
  C22      1.0000 0.81190  0.57070  0.49690  Biso   1.000  C
  C23      1.0000 0.84100  0.57230  0.43480  Biso   1.000  C
  H18      1.0000 0.87740  0.57240  0.43430  Biso   1.000  H
  C24      1.0000 0.81360  0.57380  0.37590  Biso   1.000  C
  H19      1.0000 0.83150  0.57480  0.33310  Biso   1.000  H
  N19      1.0000 0.83700  0.56000  0.31300  Biso   1.000  N
  O14      1.0000 0.88520  0.57080  0.30990  Biso   1.000  O
  N20      1.0000 0.96280  0.62400  0.54020  Biso   1.000  N
  C25      1.0000 0.97700  0.67990  0.52550  Biso   1.000  C
  C26      1.0000 0.95280  0.71390  0.55230  Biso   1.000  C
  H20      1.0000 0.92300  0.69990  0.58660  Biso   1.000  H
  C27      1.0000 0.97770  0.77040  0.52270  Biso   1.000  C
  H21      1.0000 0.96190  0.79470  0.53580  Biso   1.000  H
  N21      1.0000 0.94480  0.80300  0.55310  Biso   1.000  N
  O15      1.0000 0.97210  0.85660  0.51360  Biso   1.000  O
  Zn4      1.0000 0.56449  0.66797  0.09613  Biso   1.000  Zn
  C28      1.0000 0.64180  0.67500  0.21200  Biso   1.000  C
  H22      1.0000 0.67080  0.67420  0.18310  Biso   1.000  H
  N22      1.0000 0.59330  0.67620  0.19150  Biso   1.000  N
  O16      1.0000 0.49190  0.67790  0.19480  Biso   1.000  O
  C29      1.0000 0.44140  0.62230  0.03640  Biso   1.000  C
  H23      1.0000 0.44960  0.66010  0.02090  Biso   1.000  H
  N23      1.0000 0.48180  0.60460  0.06660  Biso   1.000  N
  C30      1.0000 0.45060  0.60150  0.02800  Biso   1.000  C
  H24      1.0000 0.42430  0.58250  0.99070  Biso   1.000  H
  N24      1.0000 0.49080  0.59090  0.09170  Biso   1.000  N
  O17      1.0000 0.45140  0.46680  0.12260  Biso   1.000  O
  O18      1.0000 0.44220  0.47430  0.17730  Biso   1.000  O
  N25      1.0000 0.56830  0.73972  0.06140  Biso   1.000  N
  C31      1.0000 0.57070  0.75880  0.99690  Biso   1.000  C
  C32      1.0000 0.57230  0.73130  0.93480  Biso   1.000  C
  H25      1.0000 0.57240  0.69500  0.93430  Biso   1.000  H
  C33      1.0000 0.57380  0.76020  0.87590  Biso   1.000  C
  H26      1.0000 0.57480  0.74330  0.83310  Biso   1.000  H
  N26      1.0000 0.56000  0.72300  0.81300  Biso   1.000  N
  O19      1.0000 0.57080  0.68560  0.80990  Biso   1.000  O
  N27      1.0000 0.62400  0.66120  0.04020  Biso   1.000  N
  C34      1.0000 0.67990  0.70290  0.02550  Biso   1.000  C
  C35      1.0000 0.71390  0.76110  0.05230  Biso   1.000  C
  H27      1.0000 0.69990  0.77690  0.08660  Biso   1.000  H
  C36      1.0000 0.77040  0.79270  0.02270  Biso   1.000  C
  H28      1.0000 0.79470  0.83280  0.03580  Biso   1.000  H
  N28      1.0000 0.80300  0.85820  0.05310  Biso   1.000  N
  O20      1.0000 0.85660  0.88450  0.01360  Biso   1.000  O
  Zn5      1.0000 0.33203  0.89652  0.09613  Biso   1.000  Zn
  C37      1.0000 0.32500  0.96680  0.21200  Biso   1.000  C
  H29      1.0000 0.32580  0.99660  0.18310  Biso   1.000  H
  N29      1.0000 0.32380  0.91710  0.19150  Biso   1.000  N
  O21      1.0000 0.32210  0.81400  0.19480  Biso   1.000  O
  C38      1.0000 0.37770  0.81910  0.03640  Biso   1.000  C
  H30      1.0000 0.33990  0.78950  0.02090  Biso   1.000  H
  N30      1.0000 0.39540  0.87720  0.06660  Biso   1.000  N
  C39      1.0000 0.39850  0.84910  0.02800  Biso   1.000  C
  H31      1.0000 0.41750  0.84180  0.99070  Biso   1.000  H
  N31      1.0000 0.40910  0.89990  0.09170  Biso   1.000  N
  O22      1.0000 0.53320  0.98460  0.12260  Biso   1.000  O
  O23      1.0000 0.52570  0.96790  0.17730  Biso   1.000  O
  N32      1.0000 0.26028  0.82858  0.06140  Biso   1.000  N
  C40      1.0000 0.24120  0.81190  0.99690  Biso   1.000  C
  C41      1.0000 0.26870  0.84100  0.93480  Biso   1.000  C
  H32      1.0000 0.30500  0.87740  0.93430  Biso   1.000  H
  C42      1.0000 0.23980  0.81360  0.87590  Biso   1.000  C
  H33      1.0000 0.25670  0.83150  0.83310  Biso   1.000  H
  N33      1.0000 0.27700  0.83700  0.81300  Biso   1.000  N
  O24      1.0000 0.31440  0.88520  0.80990  Biso   1.000  O
  N34      1.0000 0.33880  0.96280  0.04020  Biso   1.000  N
  C43      1.0000 0.29710  0.97700  0.02550  Biso   1.000  C
  C44      1.0000 0.23890  0.95280  0.05230  Biso   1.000  C
  H34      1.0000 0.22310  0.92300  0.08660  Biso   1.000  H
  C45      1.0000 0.20730  0.97770  0.02270  Biso   1.000  C
  H35      1.0000 0.16720  0.96190  0.03580  Biso   1.000  H
  N35      1.0000 0.14180  0.94480  0.05310  Biso   1.000  N
  O25      1.0000 0.11550  0.97210  0.01360  Biso   1.000  O
  Zn6      1.0000 0.10348  0.43551  0.09613  Biso   1.000  Zn
  C46      1.0000 0.03320  0.35820  0.21200  Biso   1.000  C
  H36      1.0000 0.00340  0.32920  0.18310  Biso   1.000  H
  N36      1.0000 0.08290  0.40670  0.19150  Biso   1.000  N
  O26      1.0000 0.18600  0.50810  0.19480  Biso   1.000  O
  C47      1.0000 0.18090  0.55860  0.03640  Biso   1.000  C
  H37      1.0000 0.21050  0.55040  0.02090  Biso   1.000  H
  N37      1.0000 0.12280  0.51820  0.06660  Biso   1.000  N
  C48      1.0000 0.15090  0.54940  0.02800  Biso   1.000  C
  H38      1.0000 0.15820  0.57570  0.99070  Biso   1.000  H
  N38      1.0000 0.10010  0.50920  0.09170  Biso   1.000  N
  O27      1.0000 0.01540  0.54860  0.12260  Biso   1.000  O
  O28      1.0000 0.03210  0.55780  0.17730  Biso   1.000  O
  N39      1.0000 0.17142  0.43170  0.06140  Biso   1.000  N
  C49      1.0000 0.18810  0.42930  0.99690  Biso   1.000  C
  C50      1.0000 0.15900  0.42770  0.93480  Biso   1.000  C
  H39      1.0000 0.12260  0.42760  0.93430  Biso   1.000  H
  C51      1.0000 0.18640  0.42620  0.87590  Biso   1.000  C
  H40      1.0000 0.16850  0.42520  0.83310  Biso   1.000  H
  N40      1.0000 0.16300  0.44000  0.81300  Biso   1.000  N
  O29      1.0000 0.11480  0.42920  0.80990  Biso   1.000  O
  N41      1.0000 0.03720  0.37600  0.04020  Biso   1.000  N
  C52      1.0000 0.02300  0.32010  0.02550  Biso   1.000  C
  C53      1.0000 0.04720  0.28610  0.05230  Biso   1.000  C
  H41      1.0000 0.07700  0.30010  0.08660  Biso   1.000  H
  C54      1.0000 0.02230  0.22960  0.02270  Biso   1.000  C
  H42      1.0000 0.03810  0.20530  0.03580  Biso   1.000  H
  N42      1.0000 0.05520  0.19700  0.05310  Biso   1.000  N
  O30      1.0000 0.02790  0.14340  0.01360  Biso   1.000  O
  Zn7      1.0000 0.33203  0.43551  0.40387  Biso   1.000  Zn
  C55      1.0000 0.32500  0.35820  0.28800  Biso   1.000  C
  H43      1.0000 0.32580  0.32920  0.31690  Biso   1.000  H
  N43      1.0000 0.32380  0.40670  0.30850  Biso   1.000  N
  O31      1.0000 0.32210  0.50810  0.30520  Biso   1.000  O
  C56      1.0000 0.37770  0.55860  0.46360  Biso   1.000  C
  H44      1.0000 0.33990  0.55040  0.47910  Biso   1.000  H
  N44      1.0000 0.39540  0.51820  0.43340  Biso   1.000  N
  C57      1.0000 0.39850  0.54940  0.47200  Biso   1.000  C
  H45      1.0000 0.41750  0.57570  0.50930  Biso   1.000  H
  N45      1.0000 0.40910  0.50920  0.40830  Biso   1.000  N
  O32      1.0000 0.53320  0.54860  0.37740  Biso   1.000  O
  O33      1.0000 0.52570  0.55780  0.32270  Biso   1.000  O
  N46      1.0000 0.26028  0.43170  0.43860  Biso   1.000  N
  C58      1.0000 0.24120  0.42930  0.50310  Biso   1.000  C
  C59      1.0000 0.26870  0.42770  0.56520  Biso   1.000  C
  H46      1.0000 0.30500  0.42760  0.56570  Biso   1.000  H
  C60      1.0000 0.23980  0.42620  0.62410  Biso   1.000  C
  H47      1.0000 0.25670  0.42520  0.66690  Biso   1.000  H
  N47      1.0000 0.27700  0.44000  0.68700  Biso   1.000  N
  O34      1.0000 0.31440  0.42920  0.69010  Biso   1.000  O
  N48      1.0000 0.33880  0.37600  0.45980  Biso   1.000  N
  C61      1.0000 0.29710  0.32010  0.47450  Biso   1.000  C
  C62      1.0000 0.23890  0.28610  0.44770  Biso   1.000  C
  H48      1.0000 0.22310  0.30010  0.41340  Biso   1.000  H
  C63      1.0000 0.20730  0.22960  0.47730  Biso   1.000  C
  H49      1.0000 0.16720  0.20530  0.46420  Biso   1.000  H
  N49      1.0000 0.14180  0.19700  0.44690  Biso   1.000  N
  O35      1.0000 0.11550  0.14340  0.48640  Biso   1.000  O
  Zn8      1.0000 0.10348  0.66797  0.40387  Biso   1.000  Zn
  C64      1.0000 0.03320  0.67500  0.28800  Biso   1.000  C
  H50      1.0000 0.00340  0.67420  0.31690  Biso   1.000  H
  N50      1.0000 0.08290  0.67620  0.30850  Biso   1.000  N
  O36      1.0000 0.18600  0.67790  0.30520  Biso   1.000  O
  C65      1.0000 0.18090  0.62230  0.46360  Biso   1.000  C
  H51      1.0000 0.21050  0.66010  0.47910  Biso   1.000  H
  N51      1.0000 0.12280  0.60460  0.43340  Biso   1.000  N
  C66      1.0000 0.15090  0.60150  0.47200  Biso   1.000  C
  H52      1.0000 0.15820  0.58250  0.50930  Biso   1.000  H
  N52      1.0000 0.10010  0.59090  0.40830  Biso   1.000  N
  O37      1.0000 0.01540  0.46680  0.37740  Biso   1.000  O
  O38      1.0000 0.03210  0.47430  0.32270  Biso   1.000  O
  N53      1.0000 0.17142  0.73972  0.43860  Biso   1.000  N
  C67      1.0000 0.18810  0.75880  0.50310  Biso   1.000  C
  C68      1.0000 0.15900  0.73130  0.56520  Biso   1.000  C
  H53      1.0000 0.12260  0.69500  0.56570  Biso   1.000  H
  C69      1.0000 0.18640  0.76020  0.62410  Biso   1.000  C
  H54      1.0000 0.16850  0.74330  0.66690  Biso   1.000  H
  N54      1.0000 0.16300  0.72300  0.68700  Biso   1.000  N
  O39      1.0000 0.11480  0.68560  0.69010  Biso   1.000  O
  N55      1.0000 0.03720  0.66120  0.45980  Biso   1.000  N
  C70      1.0000 0.02300  0.70290  0.47450  Biso   1.000  C
  C71      1.0000 0.04720  0.76110  0.44770  Biso   1.000  C
  H55      1.0000 0.07700  0.77690  0.41340  Biso   1.000  H
  C72      1.0000 0.02230  0.79270  0.47730  Biso   1.000  C
  H56      1.0000 0.03810  0.83280  0.46420  Biso   1.000  H
  N56      1.0000 0.05520  0.85820  0.44690  Biso   1.000  N
  O40      1.0000 0.02790  0.88450  0.48640  Biso   1.000  O
  Zn9      1.0000 0.56449  0.89652  0.40387  Biso   1.000  Zn
  C73      1.0000 0.64180  0.96680  0.28800  Biso   1.000  C
  H57      1.0000 0.67080  0.99660  0.31690  Biso   1.000  H
  N57      1.0000 0.59330  0.91710  0.30850  Biso   1.000  N
  O41      1.0000 0.49190  0.81400  0.30520  Biso   1.000  O
  C74      1.0000 0.44140  0.81910  0.46360  Biso   1.000  C
  H58      1.0000 0.44960  0.78950  0.47910  Biso   1.000  H
  N58      1.0000 0.48180  0.87720  0.43340  Biso   1.000  N
  C75      1.0000 0.45060  0.84910  0.47200  Biso   1.000  C
  H59      1.0000 0.42430  0.84180  0.50930  Biso   1.000  H
  N59      1.0000 0.49080  0.89990  0.40830  Biso   1.000  N
  O42      1.0000 0.45140  0.98460  0.37740  Biso   1.000  O
  O43      1.0000 0.44220  0.96790  0.32270  Biso   1.000  O
  N60      1.0000 0.56830  0.82858  0.43860  Biso   1.000  N
  C76      1.0000 0.57070  0.81190  0.50310  Biso   1.000  C
  C77      1.0000 0.57230  0.84100  0.56520  Biso   1.000  C
  H60      1.0000 0.57240  0.87740  0.56570  Biso   1.000  H
  C78      1.0000 0.57380  0.81360  0.62410  Biso   1.000  C
  H61      1.0000 0.57480  0.83150  0.66690  Biso   1.000  H
  N61      1.0000 0.56000  0.83700  0.68700  Biso   1.000  N
  O44      1.0000 0.57080  0.88520  0.69010  Biso   1.000  O
  N62      1.0000 0.62400  0.96280  0.45980  Biso   1.000  N
  C79      1.0000 0.67990  0.97700  0.47450  Biso   1.000  C
  C80      1.0000 0.71390  0.95280  0.44770  Biso   1.000  C
  H62      1.0000 0.69990  0.92300  0.41340  Biso   1.000  H
  C81      1.0000 0.77040  0.97770  0.47730  Biso   1.000  C
  H63      1.0000 0.79470  0.96190  0.46420  Biso   1.000  H
  N63      1.0000 0.80300  0.94480  0.44690  Biso   1.000  N
  O45      1.0000 0.85660  0.97210  0.48640  Biso   1.000  O
  Zn10     1.0000 0.66797  0.56449  0.90387  Biso   1.000  Zn
  C82      1.0000 0.67500  0.64180  0.78800  Biso   1.000  C
  H64      1.0000 0.67420  0.67080  0.81690  Biso   1.000  H
  N64      1.0000 0.67620  0.59330  0.80850  Biso   1.000  N
  O46      1.0000 0.67790  0.49190  0.80520  Biso   1.000  O
  C83      1.0000 0.62230  0.44140  0.96360  Biso   1.000  C
  H65      1.0000 0.66010  0.44960  0.97910  Biso   1.000  H
  N65      1.0000 0.60460  0.48180  0.93340  Biso   1.000  N
  C84      1.0000 0.60150  0.45060  0.97200  Biso   1.000  C
  H66      1.0000 0.58250  0.42430  0.00930  Biso   1.000  H
  N66      1.0000 0.59090  0.49080  0.90830  Biso   1.000  N
  O47      1.0000 0.46680  0.45140  0.87740  Biso   1.000  O
  O48      1.0000 0.47430  0.44220  0.82270  Biso   1.000  O
  N67      1.0000 0.73972  0.56830  0.93860  Biso   1.000  N
  C85      1.0000 0.75880  0.57070  0.00310  Biso   1.000  C
  C86      1.0000 0.73130  0.57230  0.06520  Biso   1.000  C
  H67      1.0000 0.69500  0.57240  0.06570  Biso   1.000  H
  C87      1.0000 0.76020  0.57380  0.12410  Biso   1.000  C
  H68      1.0000 0.74330  0.57480  0.16690  Biso   1.000  H
  N68      1.0000 0.72300  0.56000  0.18700  Biso   1.000  N
  O49      1.0000 0.68560  0.57080  0.19010  Biso   1.000  O
  N69      1.0000 0.66120  0.62400  0.95980  Biso   1.000  N
  C88      1.0000 0.70290  0.67990  0.97450  Biso   1.000  C
  C89      1.0000 0.76110  0.71390  0.94770  Biso   1.000  C
  H69      1.0000 0.77690  0.69990  0.91340  Biso   1.000  H
  C90      1.0000 0.79270  0.77040  0.97730  Biso   1.000  C
  H70      1.0000 0.83280  0.79470  0.96420  Biso   1.000  H
  N70      1.0000 0.85820  0.80300  0.94690  Biso   1.000  N
  O50      1.0000 0.88450  0.85660  0.98640  Biso   1.000  O
  Zn11     1.0000 0.89652  0.33203  0.90387  Biso   1.000  Zn
  C91      1.0000 0.96680  0.32500  0.78800  Biso   1.000  C
  H71      1.0000 0.99660  0.32580  0.81690  Biso   1.000  H
  N71      1.0000 0.91710  0.32380  0.80850  Biso   1.000  N
  O51      1.0000 0.81400  0.32210  0.80520  Biso   1.000  O
  C92      1.0000 0.81910  0.37770  0.96360  Biso   1.000  C
  H72      1.0000 0.78950  0.33990  0.97910  Biso   1.000  H
  N72      1.0000 0.87720  0.39540  0.93340  Biso   1.000  N
  C93      1.0000 0.84910  0.39850  0.97200  Biso   1.000  C
  H73      1.0000 0.84180  0.41750  0.00930  Biso   1.000  H
  N73      1.0000 0.89990  0.40910  0.90830  Biso   1.000  N
  O52      1.0000 0.98460  0.53320  0.87740  Biso   1.000  O
  O53      1.0000 0.96790  0.52570  0.82270  Biso   1.000  O
  N74      1.0000 0.82858  0.26028  0.93860  Biso   1.000  N
  C94      1.0000 0.81190  0.24120  0.00310  Biso   1.000  C
  C95      1.0000 0.84100  0.26870  0.06520  Biso   1.000  C
  H74      1.0000 0.87740  0.30500  0.06570  Biso   1.000  H
  C96      1.0000 0.81360  0.23980  0.12410  Biso   1.000  C
  H75      1.0000 0.83150  0.25670  0.16690  Biso   1.000  H
  N75      1.0000 0.83700  0.27700  0.18700  Biso   1.000  N
  O54      1.0000 0.88520  0.31440  0.19010  Biso   1.000  O
  N76      1.0000 0.96280  0.33880  0.95980  Biso   1.000  N
  C97      1.0000 0.97700  0.29710  0.97450  Biso   1.000  C
  C98      1.0000 0.95280  0.23890  0.94770  Biso   1.000  C
  H76      1.0000 0.92300  0.22310  0.91340  Biso   1.000  H
  C99      1.0000 0.97770  0.20730  0.97730  Biso   1.000  C
  H77      1.0000 0.96190  0.16720  0.96420  Biso   1.000  H
  N77      1.0000 0.94480  0.14180  0.94690  Biso   1.000  N
  O55      1.0000 0.97210  0.11550  0.98640  Biso   1.000  O
  Zn12     1.0000 0.43551  0.10348  0.90387  Biso   1.000  Zn
  C100     1.0000 0.35820  0.03320  0.78800  Biso   1.000  C
  H78      1.0000 0.32920  0.00340  0.81690  Biso   1.000  H
  N78      1.0000 0.40670  0.08290  0.80850  Biso   1.000  N
  O56      1.0000 0.50810  0.18600  0.80520  Biso   1.000  O
  C101     1.0000 0.55860  0.18090  0.96360  Biso   1.000  C
  H79      1.0000 0.55040  0.21050  0.97910  Biso   1.000  H
  N79      1.0000 0.51820  0.12280  0.93340  Biso   1.000  N
  C102     1.0000 0.54940  0.15090  0.97200  Biso   1.000  C
  H80      1.0000 0.57570  0.15820  0.00930  Biso   1.000  H
  N80      1.0000 0.50920  0.10010  0.90830  Biso   1.000  N
  O57      1.0000 0.54860  0.01540  0.87740  Biso   1.000  O
  O58      1.0000 0.55780  0.03210  0.82270  Biso   1.000  O
  N81      1.0000 0.43170  0.17142  0.93860  Biso   1.000  N
  C103     1.0000 0.42930  0.18810  0.00310  Biso   1.000  C
  C104     1.0000 0.42770  0.15900  0.06520  Biso   1.000  C
  H81      1.0000 0.42760  0.12260  0.06570  Biso   1.000  H
  C105     1.0000 0.42620  0.18640  0.12410  Biso   1.000  C
  H82      1.0000 0.42520  0.16850  0.16690  Biso   1.000  H
  N82      1.0000 0.44000  0.16300  0.18700  Biso   1.000  N
  O59      1.0000 0.42920  0.11480  0.19010  Biso   1.000  O
  N83      1.0000 0.37600  0.03720  0.95980  Biso   1.000  N
  C106     1.0000 0.32010  0.02300  0.97450  Biso   1.000  C
  C107     1.0000 0.28610  0.04720  0.94770  Biso   1.000  C
  H83      1.0000 0.30010  0.07700  0.91340  Biso   1.000  H
  C108     1.0000 0.22960  0.02230  0.97730  Biso   1.000  C
  H84      1.0000 0.20530  0.03810  0.96420  Biso   1.000  H
  N84      1.0000 0.19700  0.05520  0.94690  Biso   1.000  N
  O60      1.0000 0.14340  0.02790  0.98640  Biso   1.000  O
  Zn13     1.0000 0.56449  0.66797  0.40387  Biso   1.000  Zn
  C109     1.0000 0.64180  0.67500  0.28800  Biso   1.000  C
  H85      1.0000 0.67080  0.67420  0.31690  Biso   1.000  H
  N85      1.0000 0.59330  0.67620  0.30850  Biso   1.000  N
  O61      1.0000 0.49190  0.67790  0.30520  Biso   1.000  O
  C110     1.0000 0.44140  0.62230  0.46360  Biso   1.000  C
  H86      1.0000 0.44960  0.66010  0.47910  Biso   1.000  H
  N86      1.0000 0.48180  0.60460  0.43340  Biso   1.000  N
  C111     1.0000 0.45060  0.60150  0.47200  Biso   1.000  C
  H87      1.0000 0.42430  0.58250  0.50930  Biso   1.000  H
  N87      1.0000 0.49080  0.59090  0.40830  Biso   1.000  N
  O62      1.0000 0.45140  0.46680  0.37740  Biso   1.000  O
  O63      1.0000 0.44220  0.47430  0.32270  Biso   1.000  O
  N88      1.0000 0.56830  0.73972  0.43860  Biso   1.000  N
  C112     1.0000 0.57070  0.75880  0.50310  Biso   1.000  C
  C113     1.0000 0.57230  0.73130  0.56520  Biso   1.000  C
  H88      1.0000 0.57240  0.69500  0.56570  Biso   1.000  H
  C114     1.0000 0.57380  0.76020  0.62410  Biso   1.000  C
  H89      1.0000 0.57480  0.74330  0.66690  Biso   1.000  H
  N89      1.0000 0.56000  0.72300  0.68700  Biso   1.000  N
  O64      1.0000 0.57080  0.68560  0.69010  Biso   1.000  O
  N90      1.0000 0.62400  0.66120  0.45980  Biso   1.000  N
  C115     1.0000 0.67990  0.70290  0.47450  Biso   1.000  C
  C116     1.0000 0.71390  0.76110  0.44770  Biso   1.000  C
  H90      1.0000 0.69990  0.77690  0.41340  Biso   1.000  H
  C117     1.0000 0.77040  0.79270  0.47730  Biso   1.000  C
  H91      1.0000 0.79470  0.83280  0.46420  Biso   1.000  H
  N91      1.0000 0.80300  0.85820  0.44690  Biso   1.000  N
  O65      1.0000 0.85660  0.88450  0.48640  Biso   1.000  O
  Zn14     1.0000 0.33203  0.89652  0.40387  Biso   1.000  Zn
  C118     1.0000 0.32500  0.96680  0.28800  Biso   1.000  C
  H92      1.0000 0.32580  0.99660  0.31690  Biso   1.000  H
  N92      1.0000 0.32380  0.91710  0.30850  Biso   1.000  N
  O66      1.0000 0.32210  0.81400  0.30520  Biso   1.000  O
  C119     1.0000 0.37770  0.81910  0.46360  Biso   1.000  C
  H93      1.0000 0.33990  0.78950  0.47910  Biso   1.000  H
  N93      1.0000 0.39540  0.87720  0.43340  Biso   1.000  N
  C120     1.0000 0.39850  0.84910  0.47200  Biso   1.000  C
  H94      1.0000 0.41750  0.84180  0.50930  Biso   1.000  H
  N94      1.0000 0.40910  0.89990  0.40830  Biso   1.000  N
  O67      1.0000 0.53320  0.98460  0.37740  Biso   1.000  O
  O68      1.0000 0.52570  0.96790  0.32270  Biso   1.000  O
  N95      1.0000 0.26028  0.82858  0.43860  Biso   1.000  N
  C121     1.0000 0.24120  0.81190  0.50310  Biso   1.000  C
  C122     1.0000 0.26870  0.84100  0.56520  Biso   1.000  C
  H95      1.0000 0.30500  0.87740  0.56570  Biso   1.000  H
  C123     1.0000 0.23980  0.81360  0.62410  Biso   1.000  C
  H96      1.0000 0.25670  0.83150  0.66690  Biso   1.000  H
  N96      1.0000 0.27700  0.83700  0.68700  Biso   1.000  N
  O69      1.0000 0.31440  0.88520  0.69010  Biso   1.000  O
  N97      1.0000 0.33880  0.96280  0.45980  Biso   1.000  N
  C124     1.0000 0.29710  0.97700  0.47450  Biso   1.000  C
  C125     1.0000 0.23890  0.95280  0.44770  Biso   1.000  C
  H97      1.0000 0.22310  0.92300  0.41340  Biso   1.000  H
  C126     1.0000 0.20730  0.97770  0.47730  Biso   1.000  C
  H98      1.0000 0.16720  0.96190  0.46420  Biso   1.000  H
  N98      1.0000 0.14180  0.94480  0.44690  Biso   1.000  N
  O70      1.0000 0.11550  0.97210  0.48640  Biso   1.000  O
  Zn15     1.0000 0.10348  0.43551  0.40387  Biso   1.000  Zn
  C127     1.0000 0.03320  0.35820  0.28800  Biso   1.000  C
  H99      1.0000 0.00340  0.32920  0.31690  Biso   1.000  H
  N99      1.0000 0.08290  0.40670  0.30850  Biso   1.000  N
  O71      1.0000 0.18600  0.50810  0.30520  Biso   1.000  O
  C128     1.0000 0.18090  0.55860  0.46360  Biso   1.000  C
  H100     1.0000 0.21050  0.55040  0.47910  Biso   1.000  H
  N100     1.0000 0.12280  0.51820  0.43340  Biso   1.000  N
  C129     1.0000 0.15090  0.54940  0.47200  Biso   1.000  C
  H101     1.0000 0.15820  0.57570  0.50930  Biso   1.000  H
  N101     1.0000 0.10010  0.50920  0.40830  Biso   1.000  N
  O72      1.0000 0.01540  0.54860  0.37740  Biso   1.000  O
  O73      1.0000 0.03210  0.55780  0.32270  Biso   1.000  O
  N102     1.0000 0.17142  0.43170  0.43860  Biso   1.000  N
  C130     1.0000 0.18810  0.42930  0.50310  Biso   1.000  C
  C131     1.0000 0.15900  0.42770  0.56520  Biso   1.000  C
  H102     1.0000 0.12260  0.42760  0.56570  Biso   1.000  H
  C132     1.0000 0.18640  0.42620  0.62410  Biso   1.000  C
  H103     1.0000 0.16850  0.42520  0.66690  Biso   1.000  H
  N103     1.0000 0.16300  0.44000  0.68700  Biso   1.000  N
  O74      1.0000 0.11480  0.42920  0.69010  Biso   1.000  O
  N104     1.0000 0.03720  0.37600  0.45980  Biso   1.000  N
  C133     1.0000 0.02300  0.32010  0.47450  Biso   1.000  C
  C134     1.0000 0.04720  0.28610  0.44770  Biso   1.000  C
  H104     1.0000 0.07700  0.30010  0.41340  Biso   1.000  H
  C135     1.0000 0.02230  0.22960  0.47730  Biso   1.000  C
  H105     1.0000 0.03810  0.20530  0.46420  Biso   1.000  H
  N105     1.0000 0.05520  0.19700  0.44690  Biso   1.000  N
  O75      1.0000 0.02790  0.14340  0.48640  Biso   1.000  O
  Zn16     1.0000 0.43551  0.33203  0.90387  Biso   1.000  Zn
  C136     1.0000 0.35820  0.32500  0.78800  Biso   1.000  C
  H106     1.0000 0.32920  0.32580  0.81690  Biso   1.000  H
  N106     1.0000 0.40670  0.32380  0.80850  Biso   1.000  N
  O76      1.0000 0.50810  0.32210  0.80520  Biso   1.000  O
  C137     1.0000 0.55860  0.37770  0.96360  Biso   1.000  C
  H107     1.0000 0.55040  0.33990  0.97910  Biso   1.000  H
  N107     1.0000 0.51820  0.39540  0.93340  Biso   1.000  N
  C138     1.0000 0.54940  0.39850  0.97200  Biso   1.000  C
  H108     1.0000 0.57570  0.41750  0.00930  Biso   1.000  H
  N108     1.0000 0.50920  0.40910  0.90830  Biso   1.000  N
  O77      1.0000 0.54860  0.53320  0.87740  Biso   1.000  O
  O78      1.0000 0.55780  0.52570  0.82270  Biso   1.000  O
  N109     1.0000 0.43170  0.26028  0.93860  Biso   1.000  N
  C139     1.0000 0.42930  0.24120  0.00310  Biso   1.000  C
  C140     1.0000 0.42770  0.26870  0.06520  Biso   1.000  C
  H109     1.0000 0.42760  0.30500  0.06570  Biso   1.000  H
  C141     1.0000 0.42620  0.23980  0.12410  Biso   1.000  C
  H110     1.0000 0.42520  0.25670  0.16690  Biso   1.000  H
  N110     1.0000 0.44000  0.27700  0.18700  Biso   1.000  N
  O79      1.0000 0.42920  0.31440  0.19010  Biso   1.000  O
  N111     1.0000 0.37600  0.33880  0.95980  Biso   1.000  N
  C142     1.0000 0.32010  0.29710  0.97450  Biso   1.000  C
  C143     1.0000 0.28610  0.23890  0.94770  Biso   1.000  C
  H111     1.0000 0.30010  0.22310  0.91340  Biso   1.000  H
  C144     1.0000 0.22960  0.20730  0.97730  Biso   1.000  C
  H112     1.0000 0.20530  0.16720  0.96420  Biso   1.000  H
  N112     1.0000 0.19700  0.14180  0.94690  Biso   1.000  N
  O80      1.0000 0.14340  0.11550  0.98640  Biso   1.000  O
  Zn17     1.0000 0.66797  0.10348  0.90387  Biso   1.000  Zn
  C145     1.0000 0.67500  0.03320  0.78800  Biso   1.000  C
  H113     1.0000 0.67420  0.00340  0.81690  Biso   1.000  H
  N113     1.0000 0.67620  0.08290  0.80850  Biso   1.000  N
  O81      1.0000 0.67790  0.18600  0.80520  Biso   1.000  O
  C146     1.0000 0.62230  0.18090  0.96360  Biso   1.000  C
  H114     1.0000 0.66010  0.21050  0.97910  Biso   1.000  H
  N114     1.0000 0.60460  0.12280  0.93340  Biso   1.000  N
  C147     1.0000 0.60150  0.15090  0.97200  Biso   1.000  C
  H115     1.0000 0.58250  0.15820  0.00930  Biso   1.000  H
  N115     1.0000 0.59090  0.10010  0.90830  Biso   1.000  N
  O82      1.0000 0.46680  0.01540  0.87740  Biso   1.000  O
  O83      1.0000 0.47430  0.03210  0.82270  Biso   1.000  O
  N116     1.0000 0.73972  0.17142  0.93860  Biso   1.000  N
  C148     1.0000 0.75880  0.18810  0.00310  Biso   1.000  C
  C149     1.0000 0.73130  0.15900  0.06520  Biso   1.000  C
  H116     1.0000 0.69500  0.12260  0.06570  Biso   1.000  H
  C150     1.0000 0.76020  0.18640  0.12410  Biso   1.000  C
  H117     1.0000 0.74330  0.16850  0.16690  Biso   1.000  H
  N117     1.0000 0.72300  0.16300  0.18700  Biso   1.000  N
  O84      1.0000 0.68560  0.11480  0.19010  Biso   1.000  O
  N118     1.0000 0.66120  0.03720  0.95980  Biso   1.000  N
  C151     1.0000 0.70290  0.02300  0.97450  Biso   1.000  C
  C152     1.0000 0.76110  0.04720  0.94770  Biso   1.000  C
  H118     1.0000 0.77690  0.07700  0.91340  Biso   1.000  H
  C153     1.0000 0.79270  0.02230  0.97730  Biso   1.000  C
  H119     1.0000 0.83280  0.03810  0.96420  Biso   1.000  H
  N119     1.0000 0.85820  0.05520  0.94690  Biso   1.000  N
  O85      1.0000 0.88450  0.02790  0.98640  Biso   1.000  O
  Zn18     1.0000 0.89652  0.56449  0.90387  Biso   1.000  Zn
  C154     1.0000 0.96680  0.64180  0.78800  Biso   1.000  C
  H120     1.0000 0.99660  0.67080  0.81690  Biso   1.000  H
  N120     1.0000 0.91710  0.59330  0.80850  Biso   1.000  N
  O86      1.0000 0.81400  0.49190  0.80520  Biso   1.000  O
  C155     1.0000 0.81910  0.44140  0.96360  Biso   1.000  C
  H121     1.0000 0.78950  0.44960  0.97910  Biso   1.000  H
  N121     1.0000 0.87720  0.48180  0.93340  Biso   1.000  N
  C156     1.0000 0.84910  0.45060  0.97200  Biso   1.000  C
  H122     1.0000 0.84180  0.42430  0.00930  Biso   1.000  H
  N122     1.0000 0.89990  0.49080  0.90830  Biso   1.000  N
  O87      1.0000 0.98460  0.45140  0.87740  Biso   1.000  O
  O88      1.0000 0.96790  0.44220  0.82270  Biso   1.000  O
  N123     1.0000 0.82858  0.56830  0.93860  Biso   1.000  N
  C157     1.0000 0.81190  0.57070  0.00310  Biso   1.000  C
  C158     1.0000 0.84100  0.57230  0.06520  Biso   1.000  C
  H123     1.0000 0.87740  0.57240  0.06570  Biso   1.000  H
  C159     1.0000 0.81360  0.57380  0.12410  Biso   1.000  C
  H124     1.0000 0.83150  0.57480  0.16690  Biso   1.000  H
  N124     1.0000 0.83700  0.56000  0.18700  Biso   1.000  N
  O89      1.0000 0.88520  0.57080  0.19010  Biso   1.000  O
  N125     1.0000 0.96280  0.62400  0.95980  Biso   1.000  N
  C160     1.0000 0.97700  0.67990  0.97450  Biso   1.000  C
  C161     1.0000 0.95280  0.71390  0.94770  Biso   1.000  C
  H125     1.0000 0.92300  0.69990  0.91340  Biso   1.000  H
  C162     1.0000 0.97770  0.77040  0.97730  Biso   1.000  C
  H126     1.0000 0.96190  0.79470  0.96420  Biso   1.000  H
  N126     1.0000 0.94480  0.80300  0.94690  Biso   1.000  N
  O90      1.0000 0.97210  0.85660  0.98640  Biso   1.000  O
  Zn19     1.0000 0.66797  0.56449  0.59613  Biso   1.000  Zn
  C163     1.0000 0.67500  0.64180  0.71200  Biso   1.000  C
  H127     1.0000 0.67420  0.67080  0.68310  Biso   1.000  H
  N127     1.0000 0.67620  0.59330  0.69150  Biso   1.000  N
  O91      1.0000 0.67790  0.49190  0.69480  Biso   1.000  O
  C164     1.0000 0.62230  0.44140  0.53640  Biso   1.000  C
  H128     1.0000 0.66010  0.44960  0.52090  Biso   1.000  H
  N128     1.0000 0.60460  0.48180  0.56660  Biso   1.000  N
  C165     1.0000 0.60150  0.45060  0.52800  Biso   1.000  C
  H129     1.0000 0.58250  0.42430  0.49070  Biso   1.000  H
  N129     1.0000 0.59090  0.49080  0.59170  Biso   1.000  N
  O92      1.0000 0.46680  0.45140  0.62260  Biso   1.000  O
  O93      1.0000 0.47430  0.44220  0.67730  Biso   1.000  O
  N130     1.0000 0.73972  0.56830  0.56140  Biso   1.000  N
  C166     1.0000 0.75880  0.57070  0.49690  Biso   1.000  C
  C167     1.0000 0.73130  0.57230  0.43480  Biso   1.000  C
  H130     1.0000 0.69500  0.57240  0.43430  Biso   1.000  H
  C168     1.0000 0.76020  0.57380  0.37590  Biso   1.000  C
  H131     1.0000 0.74330  0.57480  0.33310  Biso   1.000  H
  N131     1.0000 0.72300  0.56000  0.31300  Biso   1.000  N
  O94      1.0000 0.68560  0.57080  0.30990  Biso   1.000  O
  N132     1.0000 0.66120  0.62400  0.54020  Biso   1.000  N
  C169     1.0000 0.70290  0.67990  0.52550  Biso   1.000  C
  C170     1.0000 0.76110  0.71390  0.55230  Biso   1.000  C
  H132     1.0000 0.77690  0.69990  0.58660  Biso   1.000  H
  C171     1.0000 0.79270  0.77040  0.52270  Biso   1.000  C
  H133     1.0000 0.83280  0.79470  0.53580  Biso   1.000  H
  N133     1.0000 0.85820  0.80300  0.55310  Biso   1.000  N
  O95      1.0000 0.88450  0.85660  0.51360  Biso   1.000  O
  Zn20     1.0000 0.89652  0.33203  0.59613  Biso   1.000  Zn
  C172     1.0000 0.96680  0.32500  0.71200  Biso   1.000  C
  H134     1.0000 0.99660  0.32580  0.68310  Biso   1.000  H
  N134     1.0000 0.91710  0.32380  0.69150  Biso   1.000  N
  O96      1.0000 0.81400  0.32210  0.69480  Biso   1.000  O
  C173     1.0000 0.81910  0.37770  0.53640  Biso   1.000  C
  H135     1.0000 0.78950  0.33990  0.52090  Biso   1.000  H
  N135     1.0000 0.87720  0.39540  0.56660  Biso   1.000  N
  C174     1.0000 0.84910  0.39850  0.52800  Biso   1.000  C
  H136     1.0000 0.84180  0.41750  0.49070  Biso   1.000  H
  N136     1.0000 0.89990  0.40910  0.59170  Biso   1.000  N
  O97      1.0000 0.98460  0.53320  0.62260  Biso   1.000  O
  O98      1.0000 0.96790  0.52570  0.67730  Biso   1.000  O
  N137     1.0000 0.82858  0.26028  0.56140  Biso   1.000  N
  C175     1.0000 0.81190  0.24120  0.49690  Biso   1.000  C
  C176     1.0000 0.84100  0.26870  0.43480  Biso   1.000  C
  H137     1.0000 0.87740  0.30500  0.43430  Biso   1.000  H
  C177     1.0000 0.81360  0.23980  0.37590  Biso   1.000  C
  H138     1.0000 0.83150  0.25670  0.33310  Biso   1.000  H
  N138     1.0000 0.83700  0.27700  0.31300  Biso   1.000  N
  O99      1.0000 0.88520  0.31440  0.30990  Biso   1.000  O
  N139     1.0000 0.96280  0.33880  0.54020  Biso   1.000  N
  C178     1.0000 0.97700  0.29710  0.52550  Biso   1.000  C
  C179     1.0000 0.95280  0.23890  0.55230  Biso   1.000  C
  H139     1.0000 0.92300  0.22310  0.58660  Biso   1.000  H
  C180     1.0000 0.97770  0.20730  0.52270  Biso   1.000  C
  H140     1.0000 0.96190  0.16720  0.53580  Biso   1.000  H
  N140     1.0000 0.94480  0.14180  0.55310  Biso   1.000  N
  O100     1.0000 0.97210  0.11550  0.51360  Biso   1.000  O
  Zn21     1.0000 0.43551  0.10348  0.59613  Biso   1.000  Zn
  C181     1.0000 0.35820  0.03320  0.71200  Biso   1.000  C
  H141     1.0000 0.32920  0.00340  0.68310  Biso   1.000  H
  N141     1.0000 0.40670  0.08290  0.69150  Biso   1.000  N
  O101     1.0000 0.50810  0.18600  0.69480  Biso   1.000  O
  C182     1.0000 0.55860  0.18090  0.53640  Biso   1.000  C
  H142     1.0000 0.55040  0.21050  0.52090  Biso   1.000  H
  N142     1.0000 0.51820  0.12280  0.56660  Biso   1.000  N
  C183     1.0000 0.54940  0.15090  0.52800  Biso   1.000  C
  H143     1.0000 0.57570  0.15820  0.49070  Biso   1.000  H
  N143     1.0000 0.50920  0.10010  0.59170  Biso   1.000  N
  O102     1.0000 0.54860  0.01540  0.62260  Biso   1.000  O
  O103     1.0000 0.55780  0.03210  0.67730  Biso   1.000  O
  N144     1.0000 0.43170  0.17142  0.56140  Biso   1.000  N
  C184     1.0000 0.42930  0.18810  0.49690  Biso   1.000  C
  C185     1.0000 0.42770  0.15900  0.43480  Biso   1.000  C
  H144     1.0000 0.42760  0.12260  0.43430  Biso   1.000  H
  C186     1.0000 0.42620  0.18640  0.37590  Biso   1.000  C
  H145     1.0000 0.42520  0.16850  0.33310  Biso   1.000  H
  N145     1.0000 0.44000  0.16300  0.31300  Biso   1.000  N
  O104     1.0000 0.42920  0.11480  0.30990  Biso   1.000  O
  N146     1.0000 0.37600  0.03720  0.54020  Biso   1.000  N
  C187     1.0000 0.32010  0.02300  0.52550  Biso   1.000  C
  C188     1.0000 0.28610  0.04720  0.55230  Biso   1.000  C
  H146     1.0000 0.30010  0.07700  0.58660  Biso   1.000  H
  C189     1.0000 0.22960  0.02230  0.52270  Biso   1.000  C
  H147     1.0000 0.20530  0.03810  0.53580  Biso   1.000  H
  N147     1.0000 0.19700  0.05520  0.55310  Biso   1.000  N
  O105     1.0000 0.14340  0.02790  0.51360  Biso   1.000  O
  Zn22     1.0000 0.33203  0.43551  0.09613  Biso   1.000  Zn
  C190     1.0000 0.32500  0.35820  0.21200  Biso   1.000  C
  H148     1.0000 0.32580  0.32920  0.18310  Biso   1.000  H
  N148     1.0000 0.32380  0.40670  0.19150  Biso   1.000  N
  O106     1.0000 0.32210  0.50810  0.19480  Biso   1.000  O
  C191     1.0000 0.37770  0.55860  0.03640  Biso   1.000  C
  H149     1.0000 0.33990  0.55040  0.02090  Biso   1.000  H
  N149     1.0000 0.39540  0.51820  0.06660  Biso   1.000  N
  C192     1.0000 0.39850  0.54940  0.02800  Biso   1.000  C
  H150     1.0000 0.41750  0.57570  0.99070  Biso   1.000  H
  N150     1.0000 0.40910  0.50920  0.09170  Biso   1.000  N
  O107     1.0000 0.53320  0.54860  0.12260  Biso   1.000  O
  O108     1.0000 0.52570  0.55780  0.17730  Biso   1.000  O
  N151     1.0000 0.26028  0.43170  0.06140  Biso   1.000  N
  C193     1.0000 0.24120  0.42930  0.99690  Biso   1.000  C
  C194     1.0000 0.26870  0.42770  0.93480  Biso   1.000  C
  H151     1.0000 0.30500  0.42760  0.93430  Biso   1.000  H
  C195     1.0000 0.23980  0.42620  0.87590  Biso   1.000  C
  H152     1.0000 0.25670  0.42520  0.83310  Biso   1.000  H
  N152     1.0000 0.27700  0.44000  0.81300  Biso   1.000  N
  O109     1.0000 0.31440  0.42920  0.80990  Biso   1.000  O
  N153     1.0000 0.33880  0.37600  0.04020  Biso   1.000  N
  C196     1.0000 0.29710  0.32010  0.02550  Biso   1.000  C
  C197     1.0000 0.23890  0.28610  0.05230  Biso   1.000  C
  H153     1.0000 0.22310  0.30010  0.08660  Biso   1.000  H
  C198     1.0000 0.20730  0.22960  0.02270  Biso   1.000  C
  H154     1.0000 0.16720  0.20530  0.03580  Biso   1.000  H
  N154     1.0000 0.14180  0.19700  0.05310  Biso   1.000  N
  O110     1.0000 0.11550  0.14340  0.01360  Biso   1.000  O
  Zn23     1.0000 0.10348  0.66797  0.09613  Biso   1.000  Zn
  C199     1.0000 0.03320  0.67500  0.21200  Biso   1.000  C
  H155     1.0000 0.00340  0.67420  0.18310  Biso   1.000  H
  N155     1.0000 0.08290  0.67620  0.19150  Biso   1.000  N
  O111     1.0000 0.18600  0.67790  0.19480  Biso   1.000  O
  C200     1.0000 0.18090  0.62230  0.03640  Biso   1.000  C
  H156     1.0000 0.21050  0.66010  0.02090  Biso   1.000  H
  N156     1.0000 0.12280  0.60460  0.06660  Biso   1.000  N
  C201     1.0000 0.15090  0.60150  0.02800  Biso   1.000  C
  H157     1.0000 0.15820  0.58250  0.99070  Biso   1.000  H
  N157     1.0000 0.10010  0.59090  0.09170  Biso   1.000  N
  O112     1.0000 0.01540  0.46680  0.12260  Biso   1.000  O
  O113     1.0000 0.03210  0.47430  0.17730  Biso   1.000  O
  N158     1.0000 0.17142  0.73972  0.06140  Biso   1.000  N
  C202     1.0000 0.18810  0.75880  0.99690  Biso   1.000  C
  C203     1.0000 0.15900  0.73130  0.93480  Biso   1.000  C
  H158     1.0000 0.12260  0.69500  0.93430  Biso   1.000  H
  C204     1.0000 0.18640  0.76020  0.87590  Biso   1.000  C
  H159     1.0000 0.16850  0.74330  0.83310  Biso   1.000  H
  N159     1.0000 0.16300  0.72300  0.81300  Biso   1.000  N
  O114     1.0000 0.11480  0.68560  0.80990  Biso   1.000  O
  N160     1.0000 0.03720  0.66120  0.04020  Biso   1.000  N
  C205     1.0000 0.02300  0.70290  0.02550  Biso   1.000  C
  C206     1.0000 0.04720  0.76110  0.05230  Biso   1.000  C
  H160     1.0000 0.07700  0.77690  0.08660  Biso   1.000  H
  C207     1.0000 0.02230  0.79270  0.02270  Biso   1.000  C
  H161     1.0000 0.03810  0.83280  0.03580  Biso   1.000  H
  N161     1.0000 0.05520  0.85820  0.05310  Biso   1.000  N
  O115     1.0000 0.02790  0.88450  0.01360  Biso   1.000  O
  Zn24     1.0000 0.56449  0.89652  0.09613  Biso   1.000  Zn
  C208     1.0000 0.64180  0.96680  0.21200  Biso   1.000  C
  H162     1.0000 0.67080  0.99660  0.18310  Biso   1.000  H
  N162     1.0000 0.59330  0.91710  0.19150  Biso   1.000  N
  O116     1.0000 0.49190  0.81400  0.19480  Biso   1.000  O
  C209     1.0000 0.44140  0.81910  0.03640  Biso   1.000  C
  H163     1.0000 0.44960  0.78950  0.02090  Biso   1.000  H
  N163     1.0000 0.48180  0.87720  0.06660  Biso   1.000  N
  C210     1.0000 0.45060  0.84910  0.02800  Biso   1.000  C
  H164     1.0000 0.42430  0.84180  0.99070  Biso   1.000  H
  N164     1.0000 0.49080  0.89990  0.09170  Biso   1.000  N
  O117     1.0000 0.45140  0.98460  0.12260  Biso   1.000  O
  O118     1.0000 0.44220  0.96790  0.17730  Biso   1.000  O
  N165     1.0000 0.56830  0.82858  0.06140  Biso   1.000  N
  C211     1.0000 0.57070  0.81190  0.99690  Biso   1.000  C
  C212     1.0000 0.57230  0.84100  0.93480  Biso   1.000  C
  H165     1.0000 0.57240  0.87740  0.93430  Biso   1.000  H
  C213     1.0000 0.57380  0.81360  0.87590  Biso   1.000  C
  H166     1.0000 0.57480  0.83150  0.83310  Biso   1.000  H
  N166     1.0000 0.56000  0.83700  0.81300  Biso   1.000  N
  O119     1.0000 0.57080  0.88520  0.80990  Biso   1.000  O
  N167     1.0000 0.62400  0.96280  0.04020  Biso   1.000  N
  C214     1.0000 0.67990  0.97700  0.02550  Biso   1.000  C
  C215     1.0000 0.71390  0.95280  0.05230  Biso   1.000  C
  H167     1.0000 0.69990  0.92300  0.08660  Biso   1.000  H
  C216     1.0000 0.77040  0.97770  0.02270  Biso   1.000  C
  H168     1.0000 0.79470  0.96190  0.03580  Biso   1.000  H
  N168     1.0000 0.80300  0.94480  0.05310  Biso   1.000  N
  O120     1.0000 0.85660  0.97210  0.01360  Biso   1.000  O
  C217     1.0000 0.43060  0.32220  0.75000  Biso   1.000  C
  N169     1.0000 0.48610  0.32270  0.75000  Biso   1.000  N
  C218     1.0000 0.67780  0.10840  0.75000  Biso   1.000  C
  N170     1.0000 0.67730  0.16340  0.75000  Biso   1.000  N
  C219     1.0000 0.89160  0.56940  0.75000  Biso   1.000  C
  N171     1.0000 0.83660  0.51390  0.75000  Biso   1.000  N
  C220     1.0000 0.56940  0.67780  0.25000  Biso   1.000  C
  N172     1.0000 0.51390  0.67730  0.25000  Biso   1.000  N
  C221     1.0000 0.32220  0.89160  0.25000  Biso   1.000  C
  N173     1.0000 0.32270  0.83660  0.25000  Biso   1.000  N
  C222     1.0000 0.10840  0.43060  0.25000  Biso   1.000  C
  N174     1.0000 0.16340  0.48610  0.25000  Biso   1.000  N
  C223     1.0000 0.32220  0.43060  0.25000  Biso   1.000  C
  N175     1.0000 0.32270  0.48610  0.25000  Biso   1.000  N
  C224     1.0000 0.10840  0.67780  0.25000  Biso   1.000  C
  N176     1.0000 0.16340  0.67730  0.25000  Biso   1.000  N
  C225     1.0000 0.56940  0.89160  0.25000  Biso   1.000  C
  N177     1.0000 0.51390  0.83660  0.25000  Biso   1.000  N
  C226     1.0000 0.67780  0.56940  0.75000  Biso   1.000  C
  N178     1.0000 0.67730  0.51390  0.75000  Biso   1.000  N
  C227     1.0000 0.89160  0.32220  0.75000  Biso   1.000  C
  N179     1.0000 0.83660  0.32270  0.75000  Biso   1.000  N
  C228     1.0000 0.43060  0.10840  0.75000  Biso   1.000  C
  N180     1.0000 0.48610  0.16340  0.75000  Biso   1.000  N
  C229     1.0000 0.55190  0.44810  0.57550  Biso   1.000  C
  C230     1.0000 0.54480  0.45520  0.60200  Biso   1.000  C
  N181     1.0000 0.52500  0.47500  0.65800  Biso   1.000  N
  N182     1.0000 0.51890  0.48110  0.61100  Biso   1.000  N
  C231     1.0000 0.55190  0.10380  0.57550  Biso   1.000  C
  C232     1.0000 0.54480  0.08960  0.60200  Biso   1.000  C
  N183     1.0000 0.52500  0.05000  0.65800  Biso   1.000  N
  N184     1.0000 0.51890  0.03780  0.61100  Biso   1.000  N
  C233     1.0000 0.89620  0.44810  0.57550  Biso   1.000  C
  C234     1.0000 0.91040  0.45520  0.60200  Biso   1.000  C
  N185     1.0000 0.95000  0.47500  0.65800  Biso   1.000  N
  N186     1.0000 0.96220  0.48110  0.61100  Biso   1.000  N
  C235     1.0000 0.44810  0.55190  0.07550  Biso   1.000  C
  C236     1.0000 0.45520  0.54480  0.10200  Biso   1.000  C
  N187     1.0000 0.47500  0.52500  0.15800  Biso   1.000  N
  N188     1.0000 0.48110  0.51890  0.11100  Biso   1.000  N
  C237     1.0000 0.44810  0.89620  0.07550  Biso   1.000  C
  C238     1.0000 0.45520  0.91040  0.10200  Biso   1.000  C
  N189     1.0000 0.47500  0.95000  0.15800  Biso   1.000  N
  N190     1.0000 0.48110  0.96220  0.11100  Biso   1.000  N
  C239     1.0000 0.10380  0.55190  0.07550  Biso   1.000  C
  C240     1.0000 0.08960  0.54480  0.10200  Biso   1.000  C
  N191     1.0000 0.05000  0.52500  0.15800  Biso   1.000  N
  N192     1.0000 0.03780  0.51890  0.11100  Biso   1.000  N
  C241     1.0000 0.44810  0.55190  0.42450  Biso   1.000  C
  C242     1.0000 0.45520  0.54480  0.39800  Biso   1.000  C
  N193     1.0000 0.47500  0.52500  0.34200  Biso   1.000  N
  N194     1.0000 0.48110  0.51890  0.38900  Biso   1.000  N
  C243     1.0000 0.10380  0.55190  0.42450  Biso   1.000  C
  C244     1.0000 0.08960  0.54480  0.39800  Biso   1.000  C
  N195     1.0000 0.05000  0.52500  0.34200  Biso   1.000  N
  N196     1.0000 0.03780  0.51890  0.38900  Biso   1.000  N
  C245     1.0000 0.44810  0.89620  0.42450  Biso   1.000  C
  C246     1.0000 0.45520  0.91040  0.39800  Biso   1.000  C
  N197     1.0000 0.47500  0.95000  0.34200  Biso   1.000  N
  N198     1.0000 0.48110  0.96220  0.38900  Biso   1.000  N
  C247     1.0000 0.55190  0.44810  0.92450  Biso   1.000  C
  C248     1.0000 0.54480  0.45520  0.89800  Biso   1.000  C
  N199     1.0000 0.52500  0.47500  0.84200  Biso   1.000  N
  N200     1.0000 0.51890  0.48110  0.88900  Biso   1.000  N
  C249     1.0000 0.89620  0.44810  0.92450  Biso   1.000  C
  C250     1.0000 0.91040  0.45520  0.89800  Biso   1.000  C
  N201     1.0000 0.95000  0.47500  0.84200  Biso   1.000  N
  N202     1.0000 0.96220  0.48110  0.88900  Biso   1.000  N
  C251     1.0000 0.55190  0.10380  0.92450  Biso   1.000  C
  C252     1.0000 0.54480  0.08960  0.89800  Biso   1.000  C
  N203     1.0000 0.52500  0.05000  0.84200  Biso   1.000  N
  N204     1.0000 0.51890  0.03780  0.88900  Biso   1.000  N
  C253     1.0000 0.43290  0.21645  0.60070  Biso   1.000  C
  H169     1.0000 0.43430  0.21715  0.64940  Biso   1.000  H
  O121     1.0000 0.22370  0.11185  0.59100  Biso   1.000  O
  C254     1.0000 0.78355  0.21645  0.60070  Biso   1.000  C
  H170     1.0000 0.78285  0.21715  0.64940  Biso   1.000  H
  O122     1.0000 0.88815  0.11185  0.59100  Biso   1.000  O
  C255     1.0000 0.78355  0.56710  0.60070  Biso   1.000  C
  H171     1.0000 0.78285  0.56570  0.64940  Biso   1.000  H
  O123     1.0000 0.88815  0.77630  0.59100  Biso   1.000  O
  C256     1.0000 0.56710  0.78355  0.10070  Biso   1.000  C
  H172     1.0000 0.56570  0.78285  0.14940  Biso   1.000  H
  O124     1.0000 0.77630  0.88815  0.09100  Biso   1.000  O
  C257     1.0000 0.21645  0.78355  0.10070  Biso   1.000  C
  H173     1.0000 0.21715  0.78285  0.14940  Biso   1.000  H
  O125     1.0000 0.11185  0.88815  0.09100  Biso   1.000  O
  C258     1.0000 0.21645  0.43290  0.10070  Biso   1.000  C
  H174     1.0000 0.21715  0.43430  0.14940  Biso   1.000  H
  O126     1.0000 0.11185  0.22370  0.09100  Biso   1.000  O
  C259     1.0000 0.21645  0.43290  0.39930  Biso   1.000  C
  H175     1.0000 0.21715  0.43430  0.35060  Biso   1.000  H
  O127     1.0000 0.11185  0.22370  0.40900  Biso   1.000  O
  C260     1.0000 0.21645  0.78355  0.39930  Biso   1.000  C
  H176     1.0000 0.21715  0.78285  0.35060  Biso   1.000  H
  O128     1.0000 0.11185  0.88815  0.40900  Biso   1.000  O
  C261     1.0000 0.56710  0.78355  0.39930  Biso   1.000  C
  H177     1.0000 0.56570  0.78285  0.35060  Biso   1.000  H
  O129     1.0000 0.77630  0.88815  0.40900  Biso   1.000  O
  C262     1.0000 0.78355  0.56710  0.89930  Biso   1.000  C
  H178     1.0000 0.78285  0.56570  0.85060  Biso   1.000  H
  O130     1.0000 0.88815  0.77630  0.90900  Biso   1.000  O
  C263     1.0000 0.78355  0.21645  0.89930  Biso   1.000  C
  H179     1.0000 0.78285  0.21715  0.85060  Biso   1.000  H
  O131     1.0000 0.88815  0.11185  0.90900  Biso   1.000  O
  C264     1.0000 0.43290  0.21645  0.89930  Biso   1.000  C
  H180     1.0000 0.43430  0.21715  0.85060  Biso   1.000  H
  O132     1.0000 0.22370  0.11185  0.90900  Biso   1.000  O
  O133     1.0000 0.47300  0.28100  0.25000  Biso   1.000  O
  O134     1.0000 0.71900  0.19200  0.25000  Biso   1.000  O
  O135     1.0000 0.80800  0.52700  0.25000  Biso   1.000  O
  O136     1.0000 0.52700  0.71900  0.75000  Biso   1.000  O
  O137     1.0000 0.28100  0.80800  0.75000  Biso   1.000  O
  O138     1.0000 0.19200  0.47300  0.75000  Biso   1.000  O
  O139     1.0000 0.28100  0.47300  0.75000  Biso   1.000  O
  O140     1.0000 0.19200  0.71900  0.75000  Biso   1.000  O
  O141     1.0000 0.52700  0.80800  0.75000  Biso   1.000  O
  O142     1.0000 0.71900  0.52700  0.25000  Biso   1.000  O
  O143     1.0000 0.80800  0.28100  0.25000  Biso   1.000  O
  O144     1.0000 0.47300  0.19200  0.25000  Biso   1.000  O
  C265     1.0000 0.38520  0.38520  0.50000  Biso   1.000  C
  H181     1.0000 0.42160  0.42160  0.50000  Biso   1.000  H
  C266     1.0000 0.61480  0.00000  0.50000  Biso   1.000  C
  H182     1.0000 0.57840  0.00000  0.50000  Biso   1.000  H
  C267     1.0000 0.00000  0.61480  0.50000  Biso   1.000  C
  H183     1.0000 0.00000  0.57840  0.50000  Biso   1.000  H
  C268     1.0000 0.61480  0.61480  0.00000  Biso   1.000  C
  H184     1.0000 0.57840  0.57840  0.00000  Biso   1.000  H
  C269     1.0000 0.38520  0.00000  0.00000  Biso   1.000  C
  H185     1.0000 0.42160  0.00000  0.00000  Biso   1.000  H
  C270     1.0000 0.00000  0.38520  0.00000  Biso   1.000  C
  H186     1.0000 0.00000  0.42160  0.00000  Biso   1.000  H
  C271     1.0000 0.61480  0.61480  0.50000  Biso   1.000  C
  H187     1.0000 0.57840  0.57840  0.50000  Biso   1.000  H
  C272     1.0000 0.38520  0.00000  0.50000  Biso   1.000  C
  H188     1.0000 0.42160  0.00000  0.50000  Biso   1.000  H
  C273     1.0000 0.00000  0.38520  0.50000  Biso   1.000  C
  H189     1.0000 0.00000  0.42160  0.50000  Biso   1.000  H
  C274     1.0000 0.38520  0.38520  0.00000  Biso   1.000  C
  H190     1.0000 0.42160  0.42160  0.00000  Biso   1.000  H
  C275     1.0000 0.61480  0.00000  0.00000  Biso   1.000  C
  H191     1.0000 0.57840  0.00000  0.00000  Biso   1.000  H
  C276     1.0000 0.00000  0.61480  0.00000  Biso   1.000  C
  H192     1.0000 0.00000  0.57840  0.00000  Biso   1.000  H
