data_image0
_cell_length_a       26.1174
_cell_length_b       26.1174
_cell_length_c       19.491
_cell_angle_alpha    90
_cell_angle_beta     90
_cell_angle_gamma    120

_symmetry_space_group_name_H-M    "P 1"
_symmetry_int_tables_number       1

loop_
  _symmetry_equiv_pos_as_xyz
  'x, y, z'

loop_
  _atom_site_label
  _atom_site_occupancy
  _atom_site_fract_x
  _atom_site_fract_y
  _atom_site_fract_z
  _atom_site_thermal_displace_type
  _atom_site_B_iso_or_equiv
  _atom_site_type_symbol
  Zn1      1.0000 0.43548  0.33209  0.59630  Biso   1.000  Zn
  C1       1.0000 0.35800  0.32640  0.71150  Biso   1.000  C
  H1       1.0000 0.33000  0.32870  0.68270  Biso   1.000  H
  N1       1.0000 0.40490  0.32240  0.69090  Biso   1.000  N
  O1       1.0000 0.50820  0.32150  0.69390  Biso   1.000  O
  C2       1.0000 0.56220  0.38280  0.54000  Biso   1.000  C
  H2       1.0000 0.55640  0.34580  0.52460  Biso   1.000  H
  N2       1.0000 0.51790  0.39380  0.56710  Biso   1.000  N
  C3       1.0000 0.54900  0.39790  0.52400  Biso   1.000  C
  H3       1.0000 0.53710  0.36420  0.49570  Biso   1.000  H
  N3       1.0000 0.51080  0.40860  0.58780  Biso   1.000  N
  O2       1.0000 0.54780  0.53470  0.62200  Biso   1.000  O
  O3       1.0000 0.55780  0.52250  0.67440  Biso   1.000  O
  N4       1.0000 0.43160  0.26020  0.56070  Biso   1.000  N
  C4       1.0000 0.43000  0.24160  0.49620  Biso   1.000  C
  C5       1.0000 0.42680  0.26820  0.43410  Biso   1.000  C
  H4       1.0000 0.42490  0.30360  0.43360  Biso   1.000  H
  C6       1.0000 0.42660  0.24000  0.37510  Biso   1.000  C
  H5       1.0000 0.42640  0.25740  0.33230  Biso   1.000  H
  N5       1.0000 0.44100  0.28100  0.31900  Biso   1.000  N
  O4       1.0000 0.42580  0.31900  0.31600  Biso   1.000  O
  N6       1.0000 0.37650  0.33840  0.54040  Biso   1.000  N
  C7       1.0000 0.31970  0.29770  0.52480  Biso   1.000  C
  C8       1.0000 0.28560  0.23920  0.55160  Biso   1.000  C
  H6       1.0000 0.30080  0.22360  0.58480  Biso   1.000  H
  C9       1.0000 0.23130  0.20830  0.52700  Biso   1.000  C
  H7       1.0000 0.20610  0.16970  0.54450  Biso   1.000  H
  N7       1.0000 0.19820  0.13750  0.55800  Biso   1.000  N
  O5       1.0000 0.14330  0.11690  0.52040  Biso   1.000  O
  Zn2      1.0000 0.66791  0.10339  0.59630  Biso   1.000  Zn
  C10      1.0000 0.67360  0.03160  0.71150  Biso   1.000  C
  H8       1.0000 0.67130  0.00130  0.68270  Biso   1.000  H
  N8       1.0000 0.67760  0.08250  0.69090  Biso   1.000  N
  O6       1.0000 0.67850  0.18670  0.69390  Biso   1.000  O
  C11      1.0000 0.61720  0.17940  0.54000  Biso   1.000  C
  H9       1.0000 0.65420  0.21060  0.52460  Biso   1.000  H
  N9       1.0000 0.60620  0.12410  0.56710  Biso   1.000  N
  C12      1.0000 0.60210  0.15110  0.52400  Biso   1.000  C
  H10      1.0000 0.63580  0.17290  0.49570  Biso   1.000  H
  N10      1.0000 0.59140  0.10220  0.58780  Biso   1.000  N
  O7       1.0000 0.46530  0.01310  0.62200  Biso   1.000  O
  O8       1.0000 0.47750  0.03530  0.67440  Biso   1.000  O
  N11      1.0000 0.73980  0.17140  0.56070  Biso   1.000  N
  C13      1.0000 0.75840  0.18840  0.49620  Biso   1.000  C
  C14      1.0000 0.73180  0.15860  0.43410  Biso   1.000  C
  H11      1.0000 0.69640  0.12130  0.43360  Biso   1.000  H
  C15      1.0000 0.76000  0.18660  0.37510  Biso   1.000  C
  H12      1.0000 0.74260  0.16900  0.33230  Biso   1.000  H
  N12      1.0000 0.71900  0.16000  0.31900  Biso   1.000  N
  O9       1.0000 0.68100  0.10680  0.31600  Biso   1.000  O
  N13      1.0000 0.66160  0.03810  0.54040  Biso   1.000  N
  C16      1.0000 0.70230  0.02200  0.52480  Biso   1.000  C
  C17      1.0000 0.76080  0.04640  0.55160  Biso   1.000  C
  H13      1.0000 0.77640  0.07720  0.58480  Biso   1.000  H
  C18      1.0000 0.79170  0.02300  0.52700  Biso   1.000  C
  H14      1.0000 0.83030  0.03640  0.54450  Biso   1.000  H
  N14      1.0000 0.86250  0.06070  0.55800  Biso   1.000  N
  O10      1.0000 0.88310  0.02640  0.52040  Biso   1.000  O
  Zn3      1.0000 0.89661  0.56452  0.59630  Biso   1.000  Zn
  C19      1.0000 0.96840  0.64200  0.71150  Biso   1.000  C
  H15      1.0000 0.99870  0.67000  0.68270  Biso   1.000  H
  N15      1.0000 0.91750  0.59510  0.69090  Biso   1.000  N
  O11      1.0000 0.81330  0.49180  0.69390  Biso   1.000  O
  C20      1.0000 0.82060  0.43780  0.54000  Biso   1.000  C
  H16      1.0000 0.78940  0.44360  0.52460  Biso   1.000  H
  N16      1.0000 0.87590  0.48210  0.56710  Biso   1.000  N
  C21      1.0000 0.84890  0.45100  0.52400  Biso   1.000  C
  H17      1.0000 0.82710  0.46290  0.49570  Biso   1.000  H
  N17      1.0000 0.89780  0.48920  0.58780  Biso   1.000  N
  O12      1.0000 0.98690  0.45220  0.62200  Biso   1.000  O
  O13      1.0000 0.96470  0.44220  0.67440  Biso   1.000  O
  N18      1.0000 0.82860  0.56840  0.56070  Biso   1.000  N
  C22      1.0000 0.81160  0.57000  0.49620  Biso   1.000  C
  C23      1.0000 0.84140  0.57320  0.43410  Biso   1.000  C
  H18      1.0000 0.87870  0.57510  0.43360  Biso   1.000  H
  C24      1.0000 0.81340  0.57340  0.37510  Biso   1.000  C
  H19      1.0000 0.83100  0.57360  0.33230  Biso   1.000  H
  N19      1.0000 0.84000  0.55900  0.31900  Biso   1.000  N
  O14      1.0000 0.89320  0.57420  0.31600  Biso   1.000  O
  N20      1.0000 0.96190  0.62350  0.54040  Biso   1.000  N
  C25      1.0000 0.97800  0.68030  0.52480  Biso   1.000  C
  C26      1.0000 0.95360  0.71440  0.55160  Biso   1.000  C
  H20      1.0000 0.92280  0.69920  0.58480  Biso   1.000  H
  C27      1.0000 0.97700  0.76870  0.52700  Biso   1.000  C
  H21      1.0000 0.96360  0.79390  0.54450  Biso   1.000  H
  N21      1.0000 0.93930  0.80180  0.55800  Biso   1.000  N
  O15      1.0000 0.97360  0.85670  0.52040  Biso   1.000  O
  Zn4      1.0000 0.56452  0.66791  0.09630  Biso   1.000  Zn
  C28      1.0000 0.64200  0.67360  0.21150  Biso   1.000  C
  H22      1.0000 0.67000  0.67130  0.18270  Biso   1.000  H
  N22      1.0000 0.59510  0.67760  0.19090  Biso   1.000  N
  O16      1.0000 0.49180  0.67850  0.19390  Biso   1.000  O
  C29      1.0000 0.43780  0.61720  0.04000  Biso   1.000  C
  H23      1.0000 0.44360  0.65420  0.02460  Biso   1.000  H
  N23      1.0000 0.48210  0.60620  0.06710  Biso   1.000  N
  C30      1.0000 0.45100  0.60210  0.02400  Biso   1.000  C
  H24      1.0000 0.46290  0.63580  0.99570  Biso   1.000  H
  N24      1.0000 0.48920  0.59140  0.08780  Biso   1.000  N
  O17      1.0000 0.45220  0.46530  0.12200  Biso   1.000  O
  O18      1.0000 0.44220  0.47750  0.17440  Biso   1.000  O
  N25      1.0000 0.56840  0.73980  0.06070  Biso   1.000  N
  C31      1.0000 0.57000  0.75840  0.99620  Biso   1.000  C
  C32      1.0000 0.57320  0.73180  0.93410  Biso   1.000  C
  H25      1.0000 0.57510  0.69640  0.93360  Biso   1.000  H
  C33      1.0000 0.57340  0.76000  0.87510  Biso   1.000  C
  H26      1.0000 0.57360  0.74260  0.83230  Biso   1.000  H
  N26      1.0000 0.55900  0.71900  0.81900  Biso   1.000  N
  O19      1.0000 0.57420  0.68100  0.81600  Biso   1.000  O
  N27      1.0000 0.62350  0.66160  0.04040  Biso   1.000  N
  C34      1.0000 0.68030  0.70230  0.02480  Biso   1.000  C
  C35      1.0000 0.71440  0.76080  0.05160  Biso   1.000  C
  H27      1.0000 0.69920  0.77640  0.08480  Biso   1.000  H
  C36      1.0000 0.76870  0.79170  0.02700  Biso   1.000  C
  H28      1.0000 0.79390  0.83030  0.04450  Biso   1.000  H
  N28      1.0000 0.80180  0.86250  0.05800  Biso   1.000  N
  O20      1.0000 0.85670  0.88310  0.02040  Biso   1.000  O
  Zn5      1.0000 0.33209  0.89661  0.09630  Biso   1.000  Zn
  C37      1.0000 0.32640  0.96840  0.21150  Biso   1.000  C
  H29      1.0000 0.32870  0.99870  0.18270  Biso   1.000  H
  N29      1.0000 0.32240  0.91750  0.19090  Biso   1.000  N
  O21      1.0000 0.32150  0.81330  0.19390  Biso   1.000  O
  C38      1.0000 0.38280  0.82060  0.04000  Biso   1.000  C
  H30      1.0000 0.34580  0.78940  0.02460  Biso   1.000  H
  N30      1.0000 0.39380  0.87590  0.06710  Biso   1.000  N
  C39      1.0000 0.39790  0.84890  0.02400  Biso   1.000  C
  H31      1.0000 0.36420  0.82710  0.99570  Biso   1.000  H
  N31      1.0000 0.40860  0.89780  0.08780  Biso   1.000  N
  O22      1.0000 0.53470  0.98690  0.12200  Biso   1.000  O
  O23      1.0000 0.52250  0.96470  0.17440  Biso   1.000  O
  N32      1.0000 0.26020  0.82860  0.06070  Biso   1.000  N
  C40      1.0000 0.24160  0.81160  0.99620  Biso   1.000  C
  C41      1.0000 0.26820  0.84140  0.93410  Biso   1.000  C
  H32      1.0000 0.30360  0.87870  0.93360  Biso   1.000  H
  C42      1.0000 0.24000  0.81340  0.87510  Biso   1.000  C
  H33      1.0000 0.25740  0.83100  0.83230  Biso   1.000  H
  N33      1.0000 0.28100  0.84000  0.81900  Biso   1.000  N
  O24      1.0000 0.31900  0.89320  0.81600  Biso   1.000  O
  N34      1.0000 0.33840  0.96190  0.04040  Biso   1.000  N
  C43      1.0000 0.29770  0.97800  0.02480  Biso   1.000  C
  C44      1.0000 0.23920  0.95360  0.05160  Biso   1.000  C
  H34      1.0000 0.22360  0.92280  0.08480  Biso   1.000  H
  C45      1.0000 0.20830  0.97700  0.02700  Biso   1.000  C
  H35      1.0000 0.16970  0.96360  0.04450  Biso   1.000  H
  N35      1.0000 0.13750  0.93930  0.05800  Biso   1.000  N
  O25      1.0000 0.11690  0.97360  0.02040  Biso   1.000  O
  Zn6      1.0000 0.10339  0.43548  0.09630  Biso   1.000  Zn
  C46      1.0000 0.03160  0.35800  0.21150  Biso   1.000  C
  H36      1.0000 0.00130  0.33000  0.18270  Biso   1.000  H
  N36      1.0000 0.08250  0.40490  0.19090  Biso   1.000  N
  O26      1.0000 0.18670  0.50820  0.19390  Biso   1.000  O
  C47      1.0000 0.17940  0.56220  0.04000  Biso   1.000  C
  H37      1.0000 0.21060  0.55640  0.02460  Biso   1.000  H
  N37      1.0000 0.12410  0.51790  0.06710  Biso   1.000  N
  C48      1.0000 0.15110  0.54900  0.02400  Biso   1.000  C
  H38      1.0000 0.17290  0.53710  0.99570  Biso   1.000  H
  N38      1.0000 0.10220  0.51080  0.08780  Biso   1.000  N
  O27      1.0000 0.01310  0.54780  0.12200  Biso   1.000  O
  O28      1.0000 0.03530  0.55780  0.17440  Biso   1.000  O
  N39      1.0000 0.17140  0.43160  0.06070  Biso   1.000  N
  C49      1.0000 0.18840  0.43000  0.99620  Biso   1.000  C
  C50      1.0000 0.15860  0.42680  0.93410  Biso   1.000  C
  H39      1.0000 0.12130  0.42490  0.93360  Biso   1.000  H
  C51      1.0000 0.18660  0.42660  0.87510  Biso   1.000  C
  H40      1.0000 0.16900  0.42640  0.83230  Biso   1.000  H
  N40      1.0000 0.16000  0.44100  0.81900  Biso   1.000  N
  O29      1.0000 0.10680  0.42580  0.81600  Biso   1.000  O
  N41      1.0000 0.03810  0.37650  0.04040  Biso   1.000  N
  C52      1.0000 0.02200  0.31970  0.02480  Biso   1.000  C
  C53      1.0000 0.04640  0.28560  0.05160  Biso   1.000  C
  H41      1.0000 0.07720  0.30080  0.08480  Biso   1.000  H
  C54      1.0000 0.02300  0.23130  0.02700  Biso   1.000  C
  H42      1.0000 0.03640  0.20610  0.04450  Biso   1.000  H
  N42      1.0000 0.06070  0.19820  0.05800  Biso   1.000  N
  O30      1.0000 0.02640  0.14330  0.02040  Biso   1.000  O
  Zn7      1.0000 0.33209  0.43548  0.40370  Biso   1.000  Zn
  C55      1.0000 0.32640  0.35800  0.28850  Biso   1.000  C
  H43      1.0000 0.32870  0.33000  0.31730  Biso   1.000  H
  N43      1.0000 0.32240  0.40490  0.30910  Biso   1.000  N
  O31      1.0000 0.32150  0.50820  0.30610  Biso   1.000  O
  C56      1.0000 0.38280  0.56220  0.46000  Biso   1.000  C
  H44      1.0000 0.34580  0.55640  0.47540  Biso   1.000  H
  N44      1.0000 0.39380  0.51790  0.43290  Biso   1.000  N
  C57      1.0000 0.39790  0.54900  0.47600  Biso   1.000  C
  H45      1.0000 0.36420  0.53710  0.50430  Biso   1.000  H
  N45      1.0000 0.40860  0.51080  0.41220  Biso   1.000  N
  O32      1.0000 0.53470  0.54780  0.37800  Biso   1.000  O
  O33      1.0000 0.52250  0.55780  0.32560  Biso   1.000  O
  N46      1.0000 0.26020  0.43160  0.43930  Biso   1.000  N
  C58      1.0000 0.24160  0.43000  0.50380  Biso   1.000  C
  C59      1.0000 0.26820  0.42680  0.56590  Biso   1.000  C
  H46      1.0000 0.30360  0.42490  0.56640  Biso   1.000  H
  C60      1.0000 0.24000  0.42660  0.62490  Biso   1.000  C
  H47      1.0000 0.25740  0.42640  0.66770  Biso   1.000  H
  N47      1.0000 0.28100  0.44100  0.68100  Biso   1.000  N
  O34      1.0000 0.31900  0.42580  0.68400  Biso   1.000  O
  N48      1.0000 0.33840  0.37650  0.45960  Biso   1.000  N
  C61      1.0000 0.29770  0.31970  0.47520  Biso   1.000  C
  C62      1.0000 0.23920  0.28560  0.44840  Biso   1.000  C
  H48      1.0000 0.22360  0.30080  0.41520  Biso   1.000  H
  C63      1.0000 0.20830  0.23130  0.47300  Biso   1.000  C
  H49      1.0000 0.16970  0.20610  0.45550  Biso   1.000  H
  N49      1.0000 0.13750  0.19820  0.44200  Biso   1.000  N
  O35      1.0000 0.11690  0.14330  0.47960  Biso   1.000  O
  Zn8      1.0000 0.10339  0.66791  0.40370  Biso   1.000  Zn
  C64      1.0000 0.03160  0.67360  0.28850  Biso   1.000  C
  H50      1.0000 0.00130  0.67130  0.31730  Biso   1.000  H
  N50      1.0000 0.08250  0.67760  0.30910  Biso   1.000  N
  O36      1.0000 0.18670  0.67850  0.30610  Biso   1.000  O
  C65      1.0000 0.17940  0.61720  0.46000  Biso   1.000  C
  H51      1.0000 0.21060  0.65420  0.47540  Biso   1.000  H
  N51      1.0000 0.12410  0.60620  0.43290  Biso   1.000  N
  C66      1.0000 0.15110  0.60210  0.47600  Biso   1.000  C
  H52      1.0000 0.17290  0.63580  0.50430  Biso   1.000  H
  N52      1.0000 0.10220  0.59140  0.41220  Biso   1.000  N
  O37      1.0000 0.01310  0.46530  0.37800  Biso   1.000  O
  O38      1.0000 0.03530  0.47750  0.32560  Biso   1.000  O
  N53      1.0000 0.17140  0.73980  0.43930  Biso   1.000  N
  C67      1.0000 0.18840  0.75840  0.50380  Biso   1.000  C
  C68      1.0000 0.15860  0.73180  0.56590  Biso   1.000  C
  H53      1.0000 0.12130  0.69640  0.56640  Biso   1.000  H
  C69      1.0000 0.18660  0.76000  0.62490  Biso   1.000  C
  H54      1.0000 0.16900  0.74260  0.66770  Biso   1.000  H
  N54      1.0000 0.16000  0.71900  0.68100  Biso   1.000  N
  O39      1.0000 0.10680  0.68100  0.68400  Biso   1.000  O
  N55      1.0000 0.03810  0.66160  0.45960  Biso   1.000  N
  C70      1.0000 0.02200  0.70230  0.47520  Biso   1.000  C
  C71      1.0000 0.04640  0.76080  0.44840  Biso   1.000  C
  H55      1.0000 0.07720  0.77640  0.41520  Biso   1.000  H
  C72      1.0000 0.02300  0.79170  0.47300  Biso   1.000  C
  H56      1.0000 0.03640  0.83030  0.45550  Biso   1.000  H
  N56      1.0000 0.06070  0.86250  0.44200  Biso   1.000  N
  O40      1.0000 0.02640  0.88310  0.47960  Biso   1.000  O
  Zn9      1.0000 0.56452  0.89661  0.40370  Biso   1.000  Zn
  C73      1.0000 0.64200  0.96840  0.28850  Biso   1.000  C
  H57      1.0000 0.67000  0.99870  0.31730  Biso   1.000  H
  N57      1.0000 0.59510  0.91750  0.30910  Biso   1.000  N
  O41      1.0000 0.49180  0.81330  0.30610  Biso   1.000  O
  C74      1.0000 0.43780  0.82060  0.46000  Biso   1.000  C
  H58      1.0000 0.44360  0.78940  0.47540  Biso   1.000  H
  N58      1.0000 0.48210  0.87590  0.43290  Biso   1.000  N
  C75      1.0000 0.45100  0.84890  0.47600  Biso   1.000  C
  H59      1.0000 0.46290  0.82710  0.50430  Biso   1.000  H
  N59      1.0000 0.48920  0.89780  0.41220  Biso   1.000  N
  O42      1.0000 0.45220  0.98690  0.37800  Biso   1.000  O
  O43      1.0000 0.44220  0.96470  0.32560  Biso   1.000  O
  N60      1.0000 0.56840  0.82860  0.43930  Biso   1.000  N
  C76      1.0000 0.57000  0.81160  0.50380  Biso   1.000  C
  C77      1.0000 0.57320  0.84140  0.56590  Biso   1.000  C
  H60      1.0000 0.57510  0.87870  0.56640  Biso   1.000  H
  C78      1.0000 0.57340  0.81340  0.62490  Biso   1.000  C
  H61      1.0000 0.57360  0.83100  0.66770  Biso   1.000  H
  N61      1.0000 0.55900  0.84000  0.68100  Biso   1.000  N
  O44      1.0000 0.57420  0.89320  0.68400  Biso   1.000  O
  N62      1.0000 0.62350  0.96190  0.45960  Biso   1.000  N
  C79      1.0000 0.68030  0.97800  0.47520  Biso   1.000  C
  C80      1.0000 0.71440  0.95360  0.44840  Biso   1.000  C
  H62      1.0000 0.69920  0.92280  0.41520  Biso   1.000  H
  C81      1.0000 0.76870  0.97700  0.47300  Biso   1.000  C
  H63      1.0000 0.79390  0.96360  0.45550  Biso   1.000  H
  N63      1.0000 0.80180  0.93930  0.44200  Biso   1.000  N
  O45      1.0000 0.85670  0.97360  0.47960  Biso   1.000  O
  Zn10     1.0000 0.66791  0.56452  0.90370  Biso   1.000  Zn
  C82      1.0000 0.67360  0.64200  0.78850  Biso   1.000  C
  H64      1.0000 0.67130  0.67000  0.81730  Biso   1.000  H
  N64      1.0000 0.67760  0.59510  0.80910  Biso   1.000  N
  O46      1.0000 0.67850  0.49180  0.80610  Biso   1.000  O
  C83      1.0000 0.61720  0.43780  0.96000  Biso   1.000  C
  H65      1.0000 0.65420  0.44360  0.97540  Biso   1.000  H
  N65      1.0000 0.60620  0.48210  0.93290  Biso   1.000  N
  C84      1.0000 0.60210  0.45100  0.97600  Biso   1.000  C
  H66      1.0000 0.63580  0.46290  0.00430  Biso   1.000  H
  N66      1.0000 0.59140  0.48920  0.91220  Biso   1.000  N
  O47      1.0000 0.46530  0.45220  0.87800  Biso   1.000  O
  O48      1.0000 0.47750  0.44220  0.82560  Biso   1.000  O
  N67      1.0000 0.73980  0.56840  0.93930  Biso   1.000  N
  C85      1.0000 0.75840  0.57000  0.00380  Biso   1.000  C
  C86      1.0000 0.73180  0.57320  0.06590  Biso   1.000  C
  H67      1.0000 0.69640  0.57510  0.06640  Biso   1.000  H
  C87      1.0000 0.76000  0.57340  0.12490  Biso   1.000  C
  H68      1.0000 0.74260  0.57360  0.16770  Biso   1.000  H
  N68      1.0000 0.71900  0.55900  0.18100  Biso   1.000  N
  O49      1.0000 0.68100  0.57420  0.18400  Biso   1.000  O
  N69      1.0000 0.66160  0.62350  0.95960  Biso   1.000  N
  C88      1.0000 0.70230  0.68030  0.97520  Biso   1.000  C
  C89      1.0000 0.76080  0.71440  0.94840  Biso   1.000  C
  H69      1.0000 0.77640  0.69920  0.91520  Biso   1.000  H
  C90      1.0000 0.79170  0.76870  0.97300  Biso   1.000  C
  H70      1.0000 0.83030  0.79390  0.95550  Biso   1.000  H
  N70      1.0000 0.86250  0.80180  0.94200  Biso   1.000  N
  O50      1.0000 0.88310  0.85670  0.97960  Biso   1.000  O
  Zn11     1.0000 0.89661  0.33209  0.90370  Biso   1.000  Zn
  C91      1.0000 0.96840  0.32640  0.78850  Biso   1.000  C
  H71      1.0000 0.99870  0.32870  0.81730  Biso   1.000  H
  N71      1.0000 0.91750  0.32240  0.80910  Biso   1.000  N
  O51      1.0000 0.81330  0.32150  0.80610  Biso   1.000  O
  C92      1.0000 0.82060  0.38280  0.96000  Biso   1.000  C
  H72      1.0000 0.78940  0.34580  0.97540  Biso   1.000  H
  N72      1.0000 0.87590  0.39380  0.93290  Biso   1.000  N
  C93      1.0000 0.84890  0.39790  0.97600  Biso   1.000  C
  H73      1.0000 0.82710  0.36420  0.00430  Biso   1.000  H
  N73      1.0000 0.89780  0.40860  0.91220  Biso   1.000  N
  O52      1.0000 0.98690  0.53470  0.87800  Biso   1.000  O
  O53      1.0000 0.96470  0.52250  0.82560  Biso   1.000  O
  N74      1.0000 0.82860  0.26020  0.93930  Biso   1.000  N
  C94      1.0000 0.81160  0.24160  0.00380  Biso   1.000  C
  C95      1.0000 0.84140  0.26820  0.06590  Biso   1.000  C
  H74      1.0000 0.87870  0.30360  0.06640  Biso   1.000  H
  C96      1.0000 0.81340  0.24000  0.12490  Biso   1.000  C
  H75      1.0000 0.83100  0.25740  0.16770  Biso   1.000  H
  N75      1.0000 0.84000  0.28100  0.18100  Biso   1.000  N
  O54      1.0000 0.89320  0.31900  0.18400  Biso   1.000  O
  N76      1.0000 0.96190  0.33840  0.95960  Biso   1.000  N
  C97      1.0000 0.97800  0.29770  0.97520  Biso   1.000  C
  C98      1.0000 0.95360  0.23920  0.94840  Biso   1.000  C
  H76      1.0000 0.92280  0.22360  0.91520  Biso   1.000  H
  C99      1.0000 0.97700  0.20830  0.97300  Biso   1.000  C
  H77      1.0000 0.96360  0.16970  0.95550  Biso   1.000  H
  N77      1.0000 0.93930  0.13750  0.94200  Biso   1.000  N
  O55      1.0000 0.97360  0.11690  0.97960  Biso   1.000  O
  Zn12     1.0000 0.43548  0.10339  0.90370  Biso   1.000  Zn
  C100     1.0000 0.35800  0.03160  0.78850  Biso   1.000  C
  H78      1.0000 0.33000  0.00130  0.81730  Biso   1.000  H
  N78      1.0000 0.40490  0.08250  0.80910  Biso   1.000  N
  O56      1.0000 0.50820  0.18670  0.80610  Biso   1.000  O
  C101     1.0000 0.56220  0.17940  0.96000  Biso   1.000  C
  H79      1.0000 0.55640  0.21060  0.97540  Biso   1.000  H
  N79      1.0000 0.51790  0.12410  0.93290  Biso   1.000  N
  C102     1.0000 0.54900  0.15110  0.97600  Biso   1.000  C
  H80      1.0000 0.53710  0.17290  0.00430  Biso   1.000  H
  N80      1.0000 0.51080  0.10220  0.91220  Biso   1.000  N
  O57      1.0000 0.54780  0.01310  0.87800  Biso   1.000  O
  O58      1.0000 0.55780  0.03530  0.82560  Biso   1.000  O
  N81      1.0000 0.43160  0.17140  0.93930  Biso   1.000  N
  C103     1.0000 0.43000  0.18840  0.00380  Biso   1.000  C
  C104     1.0000 0.42680  0.15860  0.06590  Biso   1.000  C
  H81      1.0000 0.42490  0.12130  0.06640  Biso   1.000  H
  C105     1.0000 0.42660  0.18660  0.12490  Biso   1.000  C
  H82      1.0000 0.42640  0.16900  0.16770  Biso   1.000  H
  N82      1.0000 0.44100  0.16000  0.18100  Biso   1.000  N
  O59      1.0000 0.42580  0.10680  0.18400  Biso   1.000  O
  N83      1.0000 0.37650  0.03810  0.95960  Biso   1.000  N
  C106     1.0000 0.31970  0.02200  0.97520  Biso   1.000  C
  C107     1.0000 0.28560  0.04640  0.94840  Biso   1.000  C
  H83      1.0000 0.30080  0.07720  0.91520  Biso   1.000  H
  C108     1.0000 0.23130  0.02300  0.97300  Biso   1.000  C
  H84      1.0000 0.20610  0.03640  0.95550  Biso   1.000  H
  N84      1.0000 0.19820  0.06070  0.94200  Biso   1.000  N
  O60      1.0000 0.14330  0.02640  0.97960  Biso   1.000  O
  Zn13     1.0000 0.56452  0.66791  0.40370  Biso   1.000  Zn
  C109     1.0000 0.64200  0.67360  0.28850  Biso   1.000  C
  H85      1.0000 0.67000  0.67130  0.31730  Biso   1.000  H
  N85      1.0000 0.59510  0.67760  0.30910  Biso   1.000  N
  O61      1.0000 0.49180  0.67850  0.30610  Biso   1.000  O
  C110     1.0000 0.43780  0.61720  0.46000  Biso   1.000  C
  H86      1.0000 0.44360  0.65420  0.47540  Biso   1.000  H
  N86      1.0000 0.48210  0.60620  0.43290  Biso   1.000  N
  C111     1.0000 0.45100  0.60210  0.47600  Biso   1.000  C
  H87      1.0000 0.46290  0.63580  0.50430  Biso   1.000  H
  N87      1.0000 0.48920  0.59140  0.41220  Biso   1.000  N
  O62      1.0000 0.45220  0.46530  0.37800  Biso   1.000  O
  O63      1.0000 0.44220  0.47750  0.32560  Biso   1.000  O
  N88      1.0000 0.56840  0.73980  0.43930  Biso   1.000  N
  C112     1.0000 0.57000  0.75840  0.50380  Biso   1.000  C
  C113     1.0000 0.57320  0.73180  0.56590  Biso   1.000  C
  H88      1.0000 0.57510  0.69640  0.56640  Biso   1.000  H
  C114     1.0000 0.57340  0.76000  0.62490  Biso   1.000  C
  H89      1.0000 0.57360  0.74260  0.66770  Biso   1.000  H
  N89      1.0000 0.55900  0.71900  0.68100  Biso   1.000  N
  O64      1.0000 0.57420  0.68100  0.68400  Biso   1.000  O
  N90      1.0000 0.62350  0.66160  0.45960  Biso   1.000  N
  C115     1.0000 0.68030  0.70230  0.47520  Biso   1.000  C
  C116     1.0000 0.71440  0.76080  0.44840  Biso   1.000  C
  H90      1.0000 0.69920  0.77640  0.41520  Biso   1.000  H
  C117     1.0000 0.76870  0.79170  0.47300  Biso   1.000  C
  H91      1.0000 0.79390  0.83030  0.45550  Biso   1.000  H
  N91      1.0000 0.80180  0.86250  0.44200  Biso   1.000  N
  O65      1.0000 0.85670  0.88310  0.47960  Biso   1.000  O
  Zn14     1.0000 0.33209  0.89661  0.40370  Biso   1.000  Zn
  C118     1.0000 0.32640  0.96840  0.28850  Biso   1.000  C
  H92      1.0000 0.32870  0.99870  0.31730  Biso   1.000  H
  N92      1.0000 0.32240  0.91750  0.30910  Biso   1.000  N
  O66      1.0000 0.32150  0.81330  0.30610  Biso   1.000  O
  C119     1.0000 0.38280  0.82060  0.46000  Biso   1.000  C
  H93      1.0000 0.34580  0.78940  0.47540  Biso   1.000  H
  N93      1.0000 0.39380  0.87590  0.43290  Biso   1.000  N
  C120     1.0000 0.39790  0.84890  0.47600  Biso   1.000  C
  H94      1.0000 0.36420  0.82710  0.50430  Biso   1.000  H
  N94      1.0000 0.40860  0.89780  0.41220  Biso   1.000  N
  O67      1.0000 0.53470  0.98690  0.37800  Biso   1.000  O
  O68      1.0000 0.52250  0.96470  0.32560  Biso   1.000  O
  N95      1.0000 0.26020  0.82860  0.43930  Biso   1.000  N
  C121     1.0000 0.24160  0.81160  0.50380  Biso   1.000  C
  C122     1.0000 0.26820  0.84140  0.56590  Biso   1.000  C
  H95      1.0000 0.30360  0.87870  0.56640  Biso   1.000  H
  C123     1.0000 0.24000  0.81340  0.62490  Biso   1.000  C
  H96      1.0000 0.25740  0.83100  0.66770  Biso   1.000  H
  N96      1.0000 0.28100  0.84000  0.68100  Biso   1.000  N
  O69      1.0000 0.31900  0.89320  0.68400  Biso   1.000  O
  N97      1.0000 0.33840  0.96190  0.45960  Biso   1.000  N
  C124     1.0000 0.29770  0.97800  0.47520  Biso   1.000  C
  C125     1.0000 0.23920  0.95360  0.44840  Biso   1.000  C
  H97      1.0000 0.22360  0.92280  0.41520  Biso   1.000  H
  C126     1.0000 0.20830  0.97700  0.47300  Biso   1.000  C
  H98      1.0000 0.16970  0.96360  0.45550  Biso   1.000  H
  N98      1.0000 0.13750  0.93930  0.44200  Biso   1.000  N
  O70      1.0000 0.11690  0.97360  0.47960  Biso   1.000  O
  Zn15     1.0000 0.10339  0.43548  0.40370  Biso   1.000  Zn
  C127     1.0000 0.03160  0.35800  0.28850  Biso   1.000  C
  H99      1.0000 0.00130  0.33000  0.31730  Biso   1.000  H
  N99      1.0000 0.08250  0.40490  0.30910  Biso   1.000  N
  O71      1.0000 0.18670  0.50820  0.30610  Biso   1.000  O
  C128     1.0000 0.17940  0.56220  0.46000  Biso   1.000  C
  H100     1.0000 0.21060  0.55640  0.47540  Biso   1.000  H
  N100     1.0000 0.12410  0.51790  0.43290  Biso   1.000  N
  C129     1.0000 0.15110  0.54900  0.47600  Biso   1.000  C
  H101     1.0000 0.17290  0.53710  0.50430  Biso   1.000  H
  N101     1.0000 0.10220  0.51080  0.41220  Biso   1.000  N
  O72      1.0000 0.01310  0.54780  0.37800  Biso   1.000  O
  O73      1.0000 0.03530  0.55780  0.32560  Biso   1.000  O
  N102     1.0000 0.17140  0.43160  0.43930  Biso   1.000  N
  C130     1.0000 0.18840  0.43000  0.50380  Biso   1.000  C
  C131     1.0000 0.15860  0.42680  0.56590  Biso   1.000  C
  H102     1.0000 0.12130  0.42490  0.56640  Biso   1.000  H
  C132     1.0000 0.18660  0.42660  0.62490  Biso   1.000  C
  H103     1.0000 0.16900  0.42640  0.66770  Biso   1.000  H
  N103     1.0000 0.16000  0.44100  0.68100  Biso   1.000  N
  O74      1.0000 0.10680  0.42580  0.68400  Biso   1.000  O
  N104     1.0000 0.03810  0.37650  0.45960  Biso   1.000  N
  C133     1.0000 0.02200  0.31970  0.47520  Biso   1.000  C
  C134     1.0000 0.04640  0.28560  0.44840  Biso   1.000  C
  H104     1.0000 0.07720  0.30080  0.41520  Biso   1.000  H
  C135     1.0000 0.02300  0.23130  0.47300  Biso   1.000  C
  H105     1.0000 0.03640  0.20610  0.45550  Biso   1.000  H
  N105     1.0000 0.06070  0.19820  0.44200  Biso   1.000  N
  O75      1.0000 0.02640  0.14330  0.47960  Biso   1.000  O
  Zn16     1.0000 0.43548  0.33209  0.90370  Biso   1.000  Zn
  C136     1.0000 0.35800  0.32640  0.78850  Biso   1.000  C
  H106     1.0000 0.33000  0.32870  0.81730  Biso   1.000  H
  N106     1.0000 0.40490  0.32240  0.80910  Biso   1.000  N
  O76      1.0000 0.50820  0.32150  0.80610  Biso   1.000  O
  C137     1.0000 0.56220  0.38280  0.96000  Biso   1.000  C
  H107     1.0000 0.55640  0.34580  0.97540  Biso   1.000  H
  N107     1.0000 0.51790  0.39380  0.93290  Biso   1.000  N
  C138     1.0000 0.54900  0.39790  0.97600  Biso   1.000  C
  H108     1.0000 0.53710  0.36420  0.00430  Biso   1.000  H
  N108     1.0000 0.51080  0.40860  0.91220  Biso   1.000  N
  O77      1.0000 0.54780  0.53470  0.87800  Biso   1.000  O
  O78      1.0000 0.55780  0.52250  0.82560  Biso   1.000  O
  N109     1.0000 0.43160  0.26020  0.93930  Biso   1.000  N
  C139     1.0000 0.43000  0.24160  0.00380  Biso   1.000  C
  C140     1.0000 0.42680  0.26820  0.06590  Biso   1.000  C
  H109     1.0000 0.42490  0.30360  0.06640  Biso   1.000  H
  C141     1.0000 0.42660  0.24000  0.12490  Biso   1.000  C
  H110     1.0000 0.42640  0.25740  0.16770  Biso   1.000  H
  N110     1.0000 0.44100  0.28100  0.18100  Biso   1.000  N
  O79      1.0000 0.42580  0.31900  0.18400  Biso   1.000  O
  N111     1.0000 0.37650  0.33840  0.95960  Biso   1.000  N
  C142     1.0000 0.31970  0.29770  0.97520  Biso   1.000  C
  C143     1.0000 0.28560  0.23920  0.94840  Biso   1.000  C
  H111     1.0000 0.30080  0.22360  0.91520  Biso   1.000  H
  C144     1.0000 0.23130  0.20830  0.97300  Biso   1.000  C
  H112     1.0000 0.20610  0.16970  0.95550  Biso   1.000  H
  N112     1.0000 0.19820  0.13750  0.94200  Biso   1.000  N
  O80      1.0000 0.14330  0.11690  0.97960  Biso   1.000  O
  Zn17     1.0000 0.66791  0.10339  0.90370  Biso   1.000  Zn
  C145     1.0000 0.67360  0.03160  0.78850  Biso   1.000  C
  H113     1.0000 0.67130  0.00130  0.81730  Biso   1.000  H
  N113     1.0000 0.67760  0.08250  0.80910  Biso   1.000  N
  O81      1.0000 0.67850  0.18670  0.80610  Biso   1.000  O
  C146     1.0000 0.61720  0.17940  0.96000  Biso   1.000  C
  H114     1.0000 0.65420  0.21060  0.97540  Biso   1.000  H
  N114     1.0000 0.60620  0.12410  0.93290  Biso   1.000  N
  C147     1.0000 0.60210  0.15110  0.97600  Biso   1.000  C
  H115     1.0000 0.63580  0.17290  0.00430  Biso   1.000  H
  N115     1.0000 0.59140  0.10220  0.91220  Biso   1.000  N
  O82      1.0000 0.46530  0.01310  0.87800  Biso   1.000  O
  O83      1.0000 0.47750  0.03530  0.82560  Biso   1.000  O
  N116     1.0000 0.73980  0.17140  0.93930  Biso   1.000  N
  C148     1.0000 0.75840  0.18840  0.00380  Biso   1.000  C
  C149     1.0000 0.73180  0.15860  0.06590  Biso   1.000  C
  H116     1.0000 0.69640  0.12130  0.06640  Biso   1.000  H
  C150     1.0000 0.76000  0.18660  0.12490  Biso   1.000  C
  H117     1.0000 0.74260  0.16900  0.16770  Biso   1.000  H
  N117     1.0000 0.71900  0.16000  0.18100  Biso   1.000  N
  O84      1.0000 0.68100  0.10680  0.18400  Biso   1.000  O
  N118     1.0000 0.66160  0.03810  0.95960  Biso   1.000  N
  C151     1.0000 0.70230  0.02200  0.97520  Biso   1.000  C
  C152     1.0000 0.76080  0.04640  0.94840  Biso   1.000  C
  H118     1.0000 0.77640  0.07720  0.91520  Biso   1.000  H
  C153     1.0000 0.79170  0.02300  0.97300  Biso   1.000  C
  H119     1.0000 0.83030  0.03640  0.95550  Biso   1.000  H
  N119     1.0000 0.86250  0.06070  0.94200  Biso   1.000  N
  O85      1.0000 0.88310  0.02640  0.97960  Biso   1.000  O
  Zn18     1.0000 0.89661  0.56452  0.90370  Biso   1.000  Zn
  C154     1.0000 0.96840  0.64200  0.78850  Biso   1.000  C
  H120     1.0000 0.99870  0.67000  0.81730  Biso   1.000  H
  N120     1.0000 0.91750  0.59510  0.80910  Biso   1.000  N
  O86      1.0000 0.81330  0.49180  0.80610  Biso   1.000  O
  C155     1.0000 0.82060  0.43780  0.96000  Biso   1.000  C
  H121     1.0000 0.78940  0.44360  0.97540  Biso   1.000  H
  N121     1.0000 0.87590  0.48210  0.93290  Biso   1.000  N
  C156     1.0000 0.84890  0.45100  0.97600  Biso   1.000  C
  H122     1.0000 0.82710  0.46290  0.00430  Biso   1.000  H
  N122     1.0000 0.89780  0.48920  0.91220  Biso   1.000  N
  O87      1.0000 0.98690  0.45220  0.87800  Biso   1.000  O
  O88      1.0000 0.96470  0.44220  0.82560  Biso   1.000  O
  N123     1.0000 0.82860  0.56840  0.93930  Biso   1.000  N
  C157     1.0000 0.81160  0.57000  0.00380  Biso   1.000  C
  C158     1.0000 0.84140  0.57320  0.06590  Biso   1.000  C
  H123     1.0000 0.87870  0.57510  0.06640  Biso   1.000  H
  C159     1.0000 0.81340  0.57340  0.12490  Biso   1.000  C
  H124     1.0000 0.83100  0.57360  0.16770  Biso   1.000  H
  N124     1.0000 0.84000  0.55900  0.18100  Biso   1.000  N
  O89      1.0000 0.89320  0.57420  0.18400  Biso   1.000  O
  N125     1.0000 0.96190  0.62350  0.95960  Biso   1.000  N
  C160     1.0000 0.97800  0.68030  0.97520  Biso   1.000  C
  C161     1.0000 0.95360  0.71440  0.94840  Biso   1.000  C
  H125     1.0000 0.92280  0.69920  0.91520  Biso   1.000  H
  C162     1.0000 0.97700  0.76870  0.97300  Biso   1.000  C
  H126     1.0000 0.96360  0.79390  0.95550  Biso   1.000  H
  N126     1.0000 0.93930  0.80180  0.94200  Biso   1.000  N
  O90      1.0000 0.97360  0.85670  0.97960  Biso   1.000  O
  Zn19     1.0000 0.66791  0.56452  0.59630  Biso   1.000  Zn
  C163     1.0000 0.67360  0.64200  0.71150  Biso   1.000  C
  H127     1.0000 0.67130  0.67000  0.68270  Biso   1.000  H
  N127     1.0000 0.67760  0.59510  0.69090  Biso   1.000  N
  O91      1.0000 0.67850  0.49180  0.69390  Biso   1.000  O
  C164     1.0000 0.61720  0.43780  0.54000  Biso   1.000  C
  H128     1.0000 0.65420  0.44360  0.52460  Biso   1.000  H
  N128     1.0000 0.60620  0.48210  0.56710  Biso   1.000  N
  C165     1.0000 0.60210  0.45100  0.52400  Biso   1.000  C
  H129     1.0000 0.63580  0.46290  0.49570  Biso   1.000  H
  N129     1.0000 0.59140  0.48920  0.58780  Biso   1.000  N
  O92      1.0000 0.46530  0.45220  0.62200  Biso   1.000  O
  O93      1.0000 0.47750  0.44220  0.67440  Biso   1.000  O
  N130     1.0000 0.73980  0.56840  0.56070  Biso   1.000  N
  C166     1.0000 0.75840  0.57000  0.49620  Biso   1.000  C
  C167     1.0000 0.73180  0.57320  0.43410  Biso   1.000  C
  H130     1.0000 0.69640  0.57510  0.43360  Biso   1.000  H
  C168     1.0000 0.76000  0.57340  0.37510  Biso   1.000  C
  H131     1.0000 0.74260  0.57360  0.33230  Biso   1.000  H
  N131     1.0000 0.71900  0.55900  0.31900  Biso   1.000  N
  O94      1.0000 0.68100  0.57420  0.31600  Biso   1.000  O
  N132     1.0000 0.66160  0.62350  0.54040  Biso   1.000  N
  C169     1.0000 0.70230  0.68030  0.52480  Biso   1.000  C
  C170     1.0000 0.76080  0.71440  0.55160  Biso   1.000  C
  H132     1.0000 0.77640  0.69920  0.58480  Biso   1.000  H
  C171     1.0000 0.79170  0.76870  0.52700  Biso   1.000  C
  H133     1.0000 0.83030  0.79390  0.54450  Biso   1.000  H
  N133     1.0000 0.86250  0.80180  0.55800  Biso   1.000  N
  O95      1.0000 0.88310  0.85670  0.52040  Biso   1.000  O
  Zn20     1.0000 0.89661  0.33209  0.59630  Biso   1.000  Zn
  C172     1.0000 0.96840  0.32640  0.71150  Biso   1.000  C
  H134     1.0000 0.99870  0.32870  0.68270  Biso   1.000  H
  N134     1.0000 0.91750  0.32240  0.69090  Biso   1.000  N
  O96      1.0000 0.81330  0.32150  0.69390  Biso   1.000  O
  C173     1.0000 0.82060  0.38280  0.54000  Biso   1.000  C
  H135     1.0000 0.78940  0.34580  0.52460  Biso   1.000  H
  N135     1.0000 0.87590  0.39380  0.56710  Biso   1.000  N
  C174     1.0000 0.84890  0.39790  0.52400  Biso   1.000  C
  H136     1.0000 0.82710  0.36420  0.49570  Biso   1.000  H
  N136     1.0000 0.89780  0.40860  0.58780  Biso   1.000  N
  O97      1.0000 0.98690  0.53470  0.62200  Biso   1.000  O
  O98      1.0000 0.96470  0.52250  0.67440  Biso   1.000  O
  N137     1.0000 0.82860  0.26020  0.56070  Biso   1.000  N
  C175     1.0000 0.81160  0.24160  0.49620  Biso   1.000  C
  C176     1.0000 0.84140  0.26820  0.43410  Biso   1.000  C
  H137     1.0000 0.87870  0.30360  0.43360  Biso   1.000  H
  C177     1.0000 0.81340  0.24000  0.37510  Biso   1.000  C
  H138     1.0000 0.83100  0.25740  0.33230  Biso   1.000  H
  N138     1.0000 0.84000  0.28100  0.31900  Biso   1.000  N
  O99      1.0000 0.89320  0.31900  0.31600  Biso   1.000  O
  N139     1.0000 0.96190  0.33840  0.54040  Biso   1.000  N
  C178     1.0000 0.97800  0.29770  0.52480  Biso   1.000  C
  C179     1.0000 0.95360  0.23920  0.55160  Biso   1.000  C
  H139     1.0000 0.92280  0.22360  0.58480  Biso   1.000  H
  C180     1.0000 0.97700  0.20830  0.52700  Biso   1.000  C
  H140     1.0000 0.96360  0.16970  0.54450  Biso   1.000  H
  N140     1.0000 0.93930  0.13750  0.55800  Biso   1.000  N
  O100     1.0000 0.97360  0.11690  0.52040  Biso   1.000  O
  Zn21     1.0000 0.43548  0.10339  0.59630  Biso   1.000  Zn
  C181     1.0000 0.35800  0.03160  0.71150  Biso   1.000  C
  H141     1.0000 0.33000  0.00130  0.68270  Biso   1.000  H
  N141     1.0000 0.40490  0.08250  0.69090  Biso   1.000  N
  O101     1.0000 0.50820  0.18670  0.69390  Biso   1.000  O
  C182     1.0000 0.56220  0.17940  0.54000  Biso   1.000  C
  H142     1.0000 0.55640  0.21060  0.52460  Biso   1.000  H
  N142     1.0000 0.51790  0.12410  0.56710  Biso   1.000  N
  C183     1.0000 0.54900  0.15110  0.52400  Biso   1.000  C
  H143     1.0000 0.53710  0.17290  0.49570  Biso   1.000  H
  N143     1.0000 0.51080  0.10220  0.58780  Biso   1.000  N
  O102     1.0000 0.54780  0.01310  0.62200  Biso   1.000  O
  O103     1.0000 0.55780  0.03530  0.67440  Biso   1.000  O
  N144     1.0000 0.43160  0.17140  0.56070  Biso   1.000  N
  C184     1.0000 0.43000  0.18840  0.49620  Biso   1.000  C
  C185     1.0000 0.42680  0.15860  0.43410  Biso   1.000  C
  H144     1.0000 0.42490  0.12130  0.43360  Biso   1.000  H
  C186     1.0000 0.42660  0.18660  0.37510  Biso   1.000  C
  H145     1.0000 0.42640  0.16900  0.33230  Biso   1.000  H
  N145     1.0000 0.44100  0.16000  0.31900  Biso   1.000  N
  O104     1.0000 0.42580  0.10680  0.31600  Biso   1.000  O
  N146     1.0000 0.37650  0.03810  0.54040  Biso   1.000  N
  C187     1.0000 0.31970  0.02200  0.52480  Biso   1.000  C
  C188     1.0000 0.28560  0.04640  0.55160  Biso   1.000  C
  H146     1.0000 0.30080  0.07720  0.58480  Biso   1.000  H
  C189     1.0000 0.23130  0.02300  0.52700  Biso   1.000  C
  H147     1.0000 0.20610  0.03640  0.54450  Biso   1.000  H
  N147     1.0000 0.19820  0.06070  0.55800  Biso   1.000  N
  O105     1.0000 0.14330  0.02640  0.52040  Biso   1.000  O
  Zn22     1.0000 0.33209  0.43548  0.09630  Biso   1.000  Zn
  C190     1.0000 0.32640  0.35800  0.21150  Biso   1.000  C
  H148     1.0000 0.32870  0.33000  0.18270  Biso   1.000  H
  N148     1.0000 0.32240  0.40490  0.19090  Biso   1.000  N
  O106     1.0000 0.32150  0.50820  0.19390  Biso   1.000  O
  C191     1.0000 0.38280  0.56220  0.04000  Biso   1.000  C
  H149     1.0000 0.34580  0.55640  0.02460  Biso   1.000  H
  N149     1.0000 0.39380  0.51790  0.06710  Biso   1.000  N
  C192     1.0000 0.39790  0.54900  0.02400  Biso   1.000  C
  H150     1.0000 0.36420  0.53710  0.99570  Biso   1.000  H
  N150     1.0000 0.40860  0.51080  0.08780  Biso   1.000  N
  O107     1.0000 0.53470  0.54780  0.12200  Biso   1.000  O
  O108     1.0000 0.52250  0.55780  0.17440  Biso   1.000  O
  N151     1.0000 0.26020  0.43160  0.06070  Biso   1.000  N
  C193     1.0000 0.24160  0.43000  0.99620  Biso   1.000  C
  C194     1.0000 0.26820  0.42680  0.93410  Biso   1.000  C
  H151     1.0000 0.30360  0.42490  0.93360  Biso   1.000  H
  C195     1.0000 0.24000  0.42660  0.87510  Biso   1.000  C
  H152     1.0000 0.25740  0.42640  0.83230  Biso   1.000  H
  N152     1.0000 0.28100  0.44100  0.81900  Biso   1.000  N
  O109     1.0000 0.31900  0.42580  0.81600  Biso   1.000  O
  N153     1.0000 0.33840  0.37650  0.04040  Biso   1.000  N
  C196     1.0000 0.29770  0.31970  0.02480  Biso   1.000  C
  C197     1.0000 0.23920  0.28560  0.05160  Biso   1.000  C
  H153     1.0000 0.22360  0.30080  0.08480  Biso   1.000  H
  C198     1.0000 0.20830  0.23130  0.02700  Biso   1.000  C
  H154     1.0000 0.16970  0.20610  0.04450  Biso   1.000  H
  N154     1.0000 0.13750  0.19820  0.05800  Biso   1.000  N
  O110     1.0000 0.11690  0.14330  0.02040  Biso   1.000  O
  Zn23     1.0000 0.10339  0.66791  0.09630  Biso   1.000  Zn
  C199     1.0000 0.03160  0.67360  0.21150  Biso   1.000  C
  H155     1.0000 0.00130  0.67130  0.18270  Biso   1.000  H
  N155     1.0000 0.08250  0.67760  0.19090  Biso   1.000  N
  O111     1.0000 0.18670  0.67850  0.19390  Biso   1.000  O
  C200     1.0000 0.17940  0.61720  0.04000  Biso   1.000  C
  H156     1.0000 0.21060  0.65420  0.02460  Biso   1.000  H
  N156     1.0000 0.12410  0.60620  0.06710  Biso   1.000  N
  C201     1.0000 0.15110  0.60210  0.02400  Biso   1.000  C
  H157     1.0000 0.17290  0.63580  0.99570  Biso   1.000  H
  N157     1.0000 0.10220  0.59140  0.08780  Biso   1.000  N
  O112     1.0000 0.01310  0.46530  0.12200  Biso   1.000  O
  O113     1.0000 0.03530  0.47750  0.17440  Biso   1.000  O
  N158     1.0000 0.17140  0.73980  0.06070  Biso   1.000  N
  C202     1.0000 0.18840  0.75840  0.99620  Biso   1.000  C
  C203     1.0000 0.15860  0.73180  0.93410  Biso   1.000  C
  H158     1.0000 0.12130  0.69640  0.93360  Biso   1.000  H
  C204     1.0000 0.18660  0.76000  0.87510  Biso   1.000  C
  H159     1.0000 0.16900  0.74260  0.83230  Biso   1.000  H
  N159     1.0000 0.16000  0.71900  0.81900  Biso   1.000  N
  O114     1.0000 0.10680  0.68100  0.81600  Biso   1.000  O
  N160     1.0000 0.03810  0.66160  0.04040  Biso   1.000  N
  C205     1.0000 0.02200  0.70230  0.02480  Biso   1.000  C
  C206     1.0000 0.04640  0.76080  0.05160  Biso   1.000  C
  H160     1.0000 0.07720  0.77640  0.08480  Biso   1.000  H
  C207     1.0000 0.02300  0.79170  0.02700  Biso   1.000  C
  H161     1.0000 0.03640  0.83030  0.04450  Biso   1.000  H
  N161     1.0000 0.06070  0.86250  0.05800  Biso   1.000  N
  O115     1.0000 0.02640  0.88310  0.02040  Biso   1.000  O
  Zn24     1.0000 0.56452  0.89661  0.09630  Biso   1.000  Zn
  C208     1.0000 0.64200  0.96840  0.21150  Biso   1.000  C
  H162     1.0000 0.67000  0.99870  0.18270  Biso   1.000  H
  N162     1.0000 0.59510  0.91750  0.19090  Biso   1.000  N
  O116     1.0000 0.49180  0.81330  0.19390  Biso   1.000  O
  C209     1.0000 0.43780  0.82060  0.04000  Biso   1.000  C
  H163     1.0000 0.44360  0.78940  0.02460  Biso   1.000  H
  N163     1.0000 0.48210  0.87590  0.06710  Biso   1.000  N
  C210     1.0000 0.45100  0.84890  0.02400  Biso   1.000  C
  H164     1.0000 0.46290  0.82710  0.99570  Biso   1.000  H
  N164     1.0000 0.48920  0.89780  0.08780  Biso   1.000  N
  O117     1.0000 0.45220  0.98690  0.12200  Biso   1.000  O
  O118     1.0000 0.44220  0.96470  0.17440  Biso   1.000  O
  N165     1.0000 0.56840  0.82860  0.06070  Biso   1.000  N
  C211     1.0000 0.57000  0.81160  0.99620  Biso   1.000  C
  C212     1.0000 0.57320  0.84140  0.93410  Biso   1.000  C
  H165     1.0000 0.57510  0.87870  0.93360  Biso   1.000  H
  C213     1.0000 0.57340  0.81340  0.87510  Biso   1.000  C
  H166     1.0000 0.57360  0.83100  0.83230  Biso   1.000  H
  N166     1.0000 0.55900  0.84000  0.81900  Biso   1.000  N
  O119     1.0000 0.57420  0.89320  0.81600  Biso   1.000  O
  N167     1.0000 0.62350  0.96190  0.04040  Biso   1.000  N
  C214     1.0000 0.68030  0.97800  0.02480  Biso   1.000  C
  C215     1.0000 0.71440  0.95360  0.05160  Biso   1.000  C
  H167     1.0000 0.69920  0.92280  0.08480  Biso   1.000  H
  C216     1.0000 0.76870  0.97700  0.02700  Biso   1.000  C
  H168     1.0000 0.79390  0.96360  0.04450  Biso   1.000  H
  N168     1.0000 0.80180  0.93930  0.05800  Biso   1.000  N
  O120     1.0000 0.85670  0.97360  0.02040  Biso   1.000  O
  C217     1.0000 0.42950  0.32020  0.75000  Biso   1.000  C
  N169     1.0000 0.48680  0.32260  0.75000  Biso   1.000  N
  C218     1.0000 0.67980  0.10930  0.75000  Biso   1.000  C
  N170     1.0000 0.67740  0.16420  0.75000  Biso   1.000  N
  C219     1.0000 0.89070  0.57050  0.75000  Biso   1.000  C
  N171     1.0000 0.83580  0.51320  0.75000  Biso   1.000  N
  C220     1.0000 0.57050  0.67980  0.25000  Biso   1.000  C
  N172     1.0000 0.51320  0.67740  0.25000  Biso   1.000  N
  C221     1.0000 0.32020  0.89070  0.25000  Biso   1.000  C
  N173     1.0000 0.32260  0.83580  0.25000  Biso   1.000  N
  C222     1.0000 0.10930  0.42950  0.25000  Biso   1.000  C
  N174     1.0000 0.16420  0.48680  0.25000  Biso   1.000  N
  C223     1.0000 0.32020  0.42950  0.25000  Biso   1.000  C
  N175     1.0000 0.32260  0.48680  0.25000  Biso   1.000  N
  C224     1.0000 0.10930  0.67980  0.25000  Biso   1.000  C
  N176     1.0000 0.16420  0.67740  0.25000  Biso   1.000  N
  C225     1.0000 0.57050  0.89070  0.25000  Biso   1.000  C
  N177     1.0000 0.51320  0.83580  0.25000  Biso   1.000  N
  C226     1.0000 0.67980  0.57050  0.75000  Biso   1.000  C
  N178     1.0000 0.67740  0.51320  0.75000  Biso   1.000  N
  C227     1.0000 0.89070  0.32020  0.75000  Biso   1.000  C
  N179     1.0000 0.83580  0.32260  0.75000  Biso   1.000  N
  C228     1.0000 0.42950  0.10930  0.75000  Biso   1.000  C
  N180     1.0000 0.48680  0.16420  0.75000  Biso   1.000  N
  C229     1.0000 0.55110  0.44890  0.57600  Biso   1.000  C
  C230     1.0000 0.54500  0.45500  0.60000  Biso   1.000  C
  N181     1.0000 0.52490  0.47510  0.65800  Biso   1.000  N
  N182     1.0000 0.51800  0.48200  0.61040  Biso   1.000  N
  C231     1.0000 0.55110  0.10220  0.57600  Biso   1.000  C
  C232     1.0000 0.54500  0.09000  0.60000  Biso   1.000  C
  N183     1.0000 0.52490  0.04980  0.65800  Biso   1.000  N
  N184     1.0000 0.51800  0.03600  0.61040  Biso   1.000  N
  C233     1.0000 0.89780  0.44890  0.57600  Biso   1.000  C
  C234     1.0000 0.91000  0.45500  0.60000  Biso   1.000  C
  N185     1.0000 0.95020  0.47510  0.65800  Biso   1.000  N
  N186     1.0000 0.96400  0.48200  0.61040  Biso   1.000  N
  C235     1.0000 0.44890  0.55110  0.07600  Biso   1.000  C
  C236     1.0000 0.45500  0.54500  0.10000  Biso   1.000  C
  N187     1.0000 0.47510  0.52490  0.15800  Biso   1.000  N
  N188     1.0000 0.48200  0.51800  0.11040  Biso   1.000  N
  C237     1.0000 0.44890  0.89780  0.07600  Biso   1.000  C
  C238     1.0000 0.45500  0.91000  0.10000  Biso   1.000  C
  N189     1.0000 0.47510  0.95020  0.15800  Biso   1.000  N
  N190     1.0000 0.48200  0.96400  0.11040  Biso   1.000  N
  C239     1.0000 0.10220  0.55110  0.07600  Biso   1.000  C
  C240     1.0000 0.09000  0.54500  0.10000  Biso   1.000  C
  N191     1.0000 0.04980  0.52490  0.15800  Biso   1.000  N
  N192     1.0000 0.03600  0.51800  0.11040  Biso   1.000  N
  C241     1.0000 0.44890  0.55110  0.42400  Biso   1.000  C
  C242     1.0000 0.45500  0.54500  0.40000  Biso   1.000  C
  N193     1.0000 0.47510  0.52490  0.34200  Biso   1.000  N
  N194     1.0000 0.48200  0.51800  0.38960  Biso   1.000  N
  C243     1.0000 0.10220  0.55110  0.42400  Biso   1.000  C
  C244     1.0000 0.09000  0.54500  0.40000  Biso   1.000  C
  N195     1.0000 0.04980  0.52490  0.34200  Biso   1.000  N
  N196     1.0000 0.03600  0.51800  0.38960  Biso   1.000  N
  C245     1.0000 0.44890  0.89780  0.42400  Biso   1.000  C
  C246     1.0000 0.45500  0.91000  0.40000  Biso   1.000  C
  N197     1.0000 0.47510  0.95020  0.34200  Biso   1.000  N
  N198     1.0000 0.48200  0.96400  0.38960  Biso   1.000  N
  C247     1.0000 0.55110  0.44890  0.92400  Biso   1.000  C
  C248     1.0000 0.54500  0.45500  0.90000  Biso   1.000  C
  N199     1.0000 0.52490  0.47510  0.84200  Biso   1.000  N
  N200     1.0000 0.51800  0.48200  0.88960  Biso   1.000  N
  C249     1.0000 0.89780  0.44890  0.92400  Biso   1.000  C
  C250     1.0000 0.91000  0.45500  0.90000  Biso   1.000  C
  N201     1.0000 0.95020  0.47510  0.84200  Biso   1.000  N
  N202     1.0000 0.96400  0.48200  0.88960  Biso   1.000  N
  C251     1.0000 0.55110  0.10220  0.92400  Biso   1.000  C
  C252     1.0000 0.54500  0.09000  0.90000  Biso   1.000  C
  N203     1.0000 0.52490  0.04980  0.84200  Biso   1.000  N
  N204     1.0000 0.51800  0.03600  0.88960  Biso   1.000  N
  C253     1.0000 0.43270  0.21635  0.60010  Biso   1.000  C
  H169     1.0000 0.43410  0.21705  0.64880  Biso   1.000  H
  O121     1.0000 0.21900  0.10950  0.59500  Biso   1.000  O
  C254     1.0000 0.78365  0.21635  0.60010  Biso   1.000  C
  H170     1.0000 0.78295  0.21705  0.64880  Biso   1.000  H
  O122     1.0000 0.89050  0.10950  0.59500  Biso   1.000  O
  C255     1.0000 0.78365  0.56730  0.60010  Biso   1.000  C
  H171     1.0000 0.78295  0.56590  0.64880  Biso   1.000  H
  O123     1.0000 0.89050  0.78100  0.59500  Biso   1.000  O
  C256     1.0000 0.56730  0.78365  0.10010  Biso   1.000  C
  H172     1.0000 0.56590  0.78295  0.14880  Biso   1.000  H
  O124     1.0000 0.78100  0.89050  0.09500  Biso   1.000  O
  C257     1.0000 0.21635  0.78365  0.10010  Biso   1.000  C
  H173     1.0000 0.21705  0.78295  0.14880  Biso   1.000  H
  O125     1.0000 0.10950  0.89050  0.09500  Biso   1.000  O
  C258     1.0000 0.21635  0.43270  0.10010  Biso   1.000  C
  H174     1.0000 0.21705  0.43410  0.14880  Biso   1.000  H
  O126     1.0000 0.10950  0.21900  0.09500  Biso   1.000  O
  C259     1.0000 0.21635  0.43270  0.39990  Biso   1.000  C
  H175     1.0000 0.21705  0.43410  0.35120  Biso   1.000  H
  O127     1.0000 0.10950  0.21900  0.40500  Biso   1.000  O
  C260     1.0000 0.21635  0.78365  0.39990  Biso   1.000  C
  H176     1.0000 0.21705  0.78295  0.35120  Biso   1.000  H
  O128     1.0000 0.10950  0.89050  0.40500  Biso   1.000  O
  C261     1.0000 0.56730  0.78365  0.39990  Biso   1.000  C
  H177     1.0000 0.56590  0.78295  0.35120  Biso   1.000  H
  O129     1.0000 0.78100  0.89050  0.40500  Biso   1.000  O
  C262     1.0000 0.78365  0.56730  0.89990  Biso   1.000  C
  H178     1.0000 0.78295  0.56590  0.85120  Biso   1.000  H
  O130     1.0000 0.89050  0.78100  0.90500  Biso   1.000  O
  C263     1.0000 0.78365  0.21635  0.89990  Biso   1.000  C
  H179     1.0000 0.78295  0.21705  0.85120  Biso   1.000  H
  O131     1.0000 0.89050  0.10950  0.90500  Biso   1.000  O
  C264     1.0000 0.43270  0.21635  0.89990  Biso   1.000  C
  H180     1.0000 0.43410  0.21705  0.85120  Biso   1.000  H
  O132     1.0000 0.21900  0.10950  0.90500  Biso   1.000  O
  O133     1.0000 0.48000  0.29000  0.25000  Biso   1.000  O
  O134     1.0000 0.71000  0.19000  0.25000  Biso   1.000  O
  O135     1.0000 0.81000  0.52000  0.25000  Biso   1.000  O
  O136     1.0000 0.52000  0.71000  0.75000  Biso   1.000  O
  O137     1.0000 0.29000  0.81000  0.75000  Biso   1.000  O
  O138     1.0000 0.19000  0.48000  0.75000  Biso   1.000  O
  O139     1.0000 0.29000  0.48000  0.75000  Biso   1.000  O
  O140     1.0000 0.19000  0.71000  0.75000  Biso   1.000  O
  O141     1.0000 0.52000  0.81000  0.75000  Biso   1.000  O
  O142     1.0000 0.71000  0.52000  0.25000  Biso   1.000  O
  O143     1.0000 0.81000  0.29000  0.25000  Biso   1.000  O
  O144     1.0000 0.48000  0.19000  0.25000  Biso   1.000  O
  C265     1.0000 0.38790  0.38790  0.50000  Biso   1.000  C
  H181     1.0000 0.42430  0.42430  0.50000  Biso   1.000  H
  C266     1.0000 0.61210  0.00000  0.50000  Biso   1.000  C
  H182     1.0000 0.57570  0.00000  0.50000  Biso   1.000  H
  C267     1.0000 0.00000  0.61210  0.50000  Biso   1.000  C
  H183     1.0000 0.00000  0.57570  0.50000  Biso   1.000  H
  C268     1.0000 0.61210  0.61210  0.00000  Biso   1.000  C
  H184     1.0000 0.57570  0.57570  0.00000  Biso   1.000  H
  C269     1.0000 0.38790  0.00000  0.00000  Biso   1.000  C
  H185     1.0000 0.42430  0.00000  0.00000  Biso   1.000  H
  C270     1.0000 0.00000  0.38790  0.00000  Biso   1.000  C
  H186     1.0000 0.00000  0.42430  0.00000  Biso   1.000  H
  C271     1.0000 0.61210  0.61210  0.50000  Biso   1.000  C
  H187     1.0000 0.57570  0.57570  0.50000  Biso   1.000  H
  C272     1.0000 0.38790  0.00000  0.50000  Biso   1.000  C
  H188     1.0000 0.42430  0.00000  0.50000  Biso   1.000  H
  C273     1.0000 0.00000  0.38790  0.50000  Biso   1.000  C
  H189     1.0000 0.00000  0.42430  0.50000  Biso   1.000  H
  C274     1.0000 0.38790  0.38790  0.00000  Biso   1.000  C
  H190     1.0000 0.42430  0.42430  0.00000  Biso   1.000  H
  C275     1.0000 0.61210  0.00000  0.00000  Biso   1.000  C
  H191     1.0000 0.57570  0.00000  0.00000  Biso   1.000  H
  C276     1.0000 0.00000  0.61210  0.00000  Biso   1.000  C
  H192     1.0000 0.00000  0.57570  0.00000  Biso   1.000  H
