data_image0
_cell_length_a       26.4422
_cell_length_b       26.4422
_cell_length_c       18.9703
_cell_angle_alpha    90
_cell_angle_beta     90
_cell_angle_gamma    120

_symmetry_space_group_name_H-M    "P 1"
_symmetry_int_tables_number       1

loop_
  _symmetry_equiv_pos_as_xyz
  'x, y, z'

loop_
  _atom_site_label
  _atom_site_occupancy
  _atom_site_fract_x
  _atom_site_fract_y
  _atom_site_fract_z
  _atom_site_thermal_displace_type
  _atom_site_B_iso_or_equiv
  _atom_site_type_symbol
  Zn1      1.0000 0.10599  0.43877  0.40927  Biso   1.000  Zn
  N1       1.0000 0.03950  0.37670  0.46480  Biso   1.000  N
  C1       1.0000 0.01280  0.31290  0.46550  Biso   1.000  C
  H1       1.0000 0.01260  0.28780  0.43100  Biso   1.000  H
  C2       1.0000 0.03910  0.33000  0.49110  Biso   1.000  C
  H2       1.0000 0.06820  0.32060  0.49790  Biso   1.000  H
  N2       1.0000 0.17470  0.43480  0.44380  Biso   1.000  N
  C3       1.0000 0.17940  0.41030  0.50830  Biso   1.000  C
  H3       1.0000 0.15200  0.39660  0.54450  Biso   1.000  H
  C4       1.0000 0.19290  0.43690  0.51370  Biso   1.000  C
  H4       1.0000 0.17310  0.43800  0.55360  Biso   1.000  H
  C5       1.0000 0.14810  0.41460  0.56800  Biso   1.000  C
  N3       1.0000 0.11780  0.42700  0.61890  Biso   1.000  N
  N4       1.0000 0.11610  0.51510  0.43980  Biso   1.000  N
  C6       1.0000 0.16780  0.55600  0.46780  Biso   1.000  C
  H5       1.0000 0.19760  0.55000  0.48400  Biso   1.000  H
  C7       1.0000 0.11210  0.53040  0.51180  Biso   1.000  C
  H6       1.0000 0.10990  0.50870  0.55150  Biso   1.000  H
  O1       1.0000 0.01360  0.54870  0.36820  Biso   1.000  O
  N5       1.0000 0.08350  0.41500  0.30890  Biso   1.000  N
  C8       1.0000 0.03390  0.37000  0.28700  Biso   1.000  C
  H7       1.0000 0.00410  0.34300  0.31570  Biso   1.000  H
  O2       1.0000 0.18606  0.51473  0.30720  Biso   1.000  O
  Zn2      1.0000 0.56123  0.66722  0.40927  Biso   1.000  Zn
  N6       1.0000 0.62330  0.66280  0.46480  Biso   1.000  N
  C9       1.0000 0.68710  0.69990  0.46550  Biso   1.000  C
  H8       1.0000 0.71220  0.72480  0.43100  Biso   1.000  H
  C10      1.0000 0.67000  0.70910  0.49110  Biso   1.000  C
  H9       1.0000 0.67940  0.74760  0.49790  Biso   1.000  H
  N7       1.0000 0.56520  0.73990  0.44380  Biso   1.000  N
  C11      1.0000 0.58970  0.76910  0.50830  Biso   1.000  C
  H10      1.0000 0.60340  0.75540  0.54450  Biso   1.000  H
  C12      1.0000 0.56310  0.75600  0.51370  Biso   1.000  C
  H11      1.0000 0.56200  0.73510  0.55360  Biso   1.000  H
  C13      1.0000 0.58540  0.73350  0.56800  Biso   1.000  C
  N8       1.0000 0.57300  0.69080  0.61890  Biso   1.000  N
  N9       1.0000 0.48490  0.60100  0.43980  Biso   1.000  N
  C14      1.0000 0.44400  0.61180  0.46780  Biso   1.000  C
  H12      1.0000 0.45000  0.64760  0.48400  Biso   1.000  H
  C15      1.0000 0.46960  0.58170  0.51180  Biso   1.000  C
  H13      1.0000 0.49130  0.60120  0.55150  Biso   1.000  H
  O3       1.0000 0.45130  0.46490  0.36820  Biso   1.000  O
  N10      1.0000 0.58500  0.66850  0.30890  Biso   1.000  N
  C16      1.0000 0.63000  0.66390  0.28700  Biso   1.000  C
  H14      1.0000 0.65700  0.66110  0.31570  Biso   1.000  H
  O4       1.0000 0.48527  0.67133  0.30720  Biso   1.000  O
  Zn3      1.0000 0.33278  0.89401  0.40927  Biso   1.000  Zn
  N11      1.0000 0.33720  0.96050  0.46480  Biso   1.000  N
  C17      1.0000 0.30010  0.98720  0.46550  Biso   1.000  C
  H15      1.0000 0.27520  0.98740  0.43100  Biso   1.000  H
  C18      1.0000 0.29090  0.96090  0.49110  Biso   1.000  C
  H16      1.0000 0.25240  0.93180  0.49790  Biso   1.000  H
  N12      1.0000 0.26010  0.82530  0.44380  Biso   1.000  N
  C19      1.0000 0.23090  0.82060  0.50830  Biso   1.000  C
  H17      1.0000 0.24460  0.84800  0.54450  Biso   1.000  H
  C20      1.0000 0.24400  0.80710  0.51370  Biso   1.000  C
  H18      1.0000 0.26490  0.82690  0.55360  Biso   1.000  H
  C21      1.0000 0.26650  0.85190  0.56800  Biso   1.000  C
  N13      1.0000 0.30920  0.88220  0.61890  Biso   1.000  N
  N14      1.0000 0.39900  0.88390  0.43980  Biso   1.000  N
  C22      1.0000 0.38820  0.83220  0.46780  Biso   1.000  C
  H19      1.0000 0.35240  0.80240  0.48400  Biso   1.000  H
  C23      1.0000 0.41830  0.88790  0.51180  Biso   1.000  C
  H20      1.0000 0.39880  0.89010  0.55150  Biso   1.000  H
  O5       1.0000 0.53510  0.98640  0.36820  Biso   1.000  O
  N15      1.0000 0.33150  0.91650  0.30890  Biso   1.000  N
  C24      1.0000 0.33610  0.96610  0.28700  Biso   1.000  C
  H21      1.0000 0.33890  0.99590  0.31570  Biso   1.000  H
  O6       1.0000 0.32867  0.81394  0.30720  Biso   1.000  O
  Zn4      1.0000 0.89401  0.56123  0.90927  Biso   1.000  Zn
  N16      1.0000 0.96050  0.62330  0.96480  Biso   1.000  N
  C25      1.0000 0.98720  0.68710  0.96550  Biso   1.000  C
  H22      1.0000 0.98740  0.71220  0.93100  Biso   1.000  H
  C26      1.0000 0.96090  0.67000  0.99110  Biso   1.000  C
  H23      1.0000 0.93180  0.67940  0.99790  Biso   1.000  H
  N17      1.0000 0.82530  0.56520  0.94380  Biso   1.000  N
  C27      1.0000 0.82060  0.58970  0.00830  Biso   1.000  C
  H24      1.0000 0.84800  0.60340  0.04450  Biso   1.000  H
  C28      1.0000 0.80710  0.56310  0.01370  Biso   1.000  C
  H25      1.0000 0.82690  0.56200  0.05360  Biso   1.000  H
  C29      1.0000 0.85190  0.58540  0.06800  Biso   1.000  C
  N18      1.0000 0.88220  0.57300  0.11890  Biso   1.000  N
  N19      1.0000 0.88390  0.48490  0.93980  Biso   1.000  N
  C30      1.0000 0.83220  0.44400  0.96780  Biso   1.000  C
  H26      1.0000 0.80240  0.45000  0.98400  Biso   1.000  H
  C31      1.0000 0.88790  0.46960  0.01180  Biso   1.000  C
  H27      1.0000 0.89010  0.49130  0.05150  Biso   1.000  H
  O7       1.0000 0.98640  0.45130  0.86820  Biso   1.000  O
  N20      1.0000 0.91650  0.58500  0.80890  Biso   1.000  N
  C32      1.0000 0.96610  0.63000  0.78700  Biso   1.000  C
  H28      1.0000 0.99590  0.65700  0.81570  Biso   1.000  H
  O8       1.0000 0.81394  0.48527  0.80720  Biso   1.000  O
  Zn5      1.0000 0.43877  0.33278  0.90927  Biso   1.000  Zn
  N21      1.0000 0.37670  0.33720  0.96480  Biso   1.000  N
  C33      1.0000 0.31290  0.30010  0.96550  Biso   1.000  C
  H29      1.0000 0.28780  0.27520  0.93100  Biso   1.000  H
  C34      1.0000 0.33000  0.29090  0.99110  Biso   1.000  C
  H30      1.0000 0.32060  0.25240  0.99790  Biso   1.000  H
  N22      1.0000 0.43480  0.26010  0.94380  Biso   1.000  N
  C35      1.0000 0.41030  0.23090  0.00830  Biso   1.000  C
  H31      1.0000 0.39660  0.24460  0.04450  Biso   1.000  H
  C36      1.0000 0.43690  0.24400  0.01370  Biso   1.000  C
  H32      1.0000 0.43800  0.26490  0.05360  Biso   1.000  H
  C37      1.0000 0.41460  0.26650  0.06800  Biso   1.000  C
  N23      1.0000 0.42700  0.30920  0.11890  Biso   1.000  N
  N24      1.0000 0.51510  0.39900  0.93980  Biso   1.000  N
  C38      1.0000 0.55600  0.38820  0.96780  Biso   1.000  C
  H33      1.0000 0.55000  0.35240  0.98400  Biso   1.000  H
  C39      1.0000 0.53040  0.41830  0.01180  Biso   1.000  C
  H34      1.0000 0.50870  0.39880  0.05150  Biso   1.000  H
  O9       1.0000 0.54870  0.53510  0.86820  Biso   1.000  O
  N25      1.0000 0.41500  0.33150  0.80890  Biso   1.000  N
  C40      1.0000 0.37000  0.33610  0.78700  Biso   1.000  C
  H35      1.0000 0.34300  0.33890  0.81570  Biso   1.000  H
  O10      1.0000 0.51473  0.32867  0.80720  Biso   1.000  O
  Zn6      1.0000 0.66722  0.10599  0.90927  Biso   1.000  Zn
  N26      1.0000 0.66280  0.03950  0.96480  Biso   1.000  N
  C41      1.0000 0.69990  0.01280  0.96550  Biso   1.000  C
  H36      1.0000 0.72480  0.01260  0.93100  Biso   1.000  H
  C42      1.0000 0.70910  0.03910  0.99110  Biso   1.000  C
  H37      1.0000 0.74760  0.06820  0.99790  Biso   1.000  H
  N27      1.0000 0.73990  0.17470  0.94380  Biso   1.000  N
  C43      1.0000 0.76910  0.17940  0.00830  Biso   1.000  C
  H38      1.0000 0.75540  0.15200  0.04450  Biso   1.000  H
  C44      1.0000 0.75600  0.19290  0.01370  Biso   1.000  C
  H39      1.0000 0.73510  0.17310  0.05360  Biso   1.000  H
  C45      1.0000 0.73350  0.14810  0.06800  Biso   1.000  C
  N28      1.0000 0.69080  0.11780  0.11890  Biso   1.000  N
  N29      1.0000 0.60100  0.11610  0.93980  Biso   1.000  N
  C46      1.0000 0.61180  0.16780  0.96780  Biso   1.000  C
  H40      1.0000 0.64760  0.19760  0.98400  Biso   1.000  H
  C47      1.0000 0.58170  0.11210  0.01180  Biso   1.000  C
  H41      1.0000 0.60120  0.10990  0.05150  Biso   1.000  H
  O11      1.0000 0.46490  0.01360  0.86820  Biso   1.000  O
  N30      1.0000 0.66850  0.08350  0.80890  Biso   1.000  N
  C48      1.0000 0.66390  0.03390  0.78700  Biso   1.000  C
  H42      1.0000 0.66110  0.00410  0.81570  Biso   1.000  H
  O12      1.0000 0.67133  0.18606  0.80720  Biso   1.000  O
  Zn7      1.0000 0.43877  0.10599  0.59073  Biso   1.000  Zn
  N31      1.0000 0.37670  0.03950  0.53520  Biso   1.000  N
  C49      1.0000 0.31290  0.01280  0.53450  Biso   1.000  C
  H43      1.0000 0.28780  0.01260  0.56900  Biso   1.000  H
  C50      1.0000 0.33000  0.03910  0.50890  Biso   1.000  C
  H44      1.0000 0.32060  0.06820  0.50210  Biso   1.000  H
  N32      1.0000 0.43480  0.17470  0.55620  Biso   1.000  N
  C51      1.0000 0.41030  0.17940  0.49170  Biso   1.000  C
  H45      1.0000 0.39660  0.15200  0.45550  Biso   1.000  H
  C52      1.0000 0.43690  0.19290  0.48630  Biso   1.000  C
  H46      1.0000 0.43800  0.17310  0.44640  Biso   1.000  H
  C53      1.0000 0.41460  0.14810  0.43200  Biso   1.000  C
  N33      1.0000 0.42700  0.11780  0.38110  Biso   1.000  N
  N34      1.0000 0.51510  0.11610  0.56020  Biso   1.000  N
  C54      1.0000 0.55600  0.16780  0.53220  Biso   1.000  C
  H47      1.0000 0.55000  0.19760  0.51600  Biso   1.000  H
  C55      1.0000 0.53040  0.11210  0.48820  Biso   1.000  C
  H48      1.0000 0.50870  0.10990  0.44850  Biso   1.000  H
  O13      1.0000 0.54870  0.01360  0.63180  Biso   1.000  O
  N35      1.0000 0.41500  0.08350  0.69110  Biso   1.000  N
  C56      1.0000 0.37000  0.03390  0.71300  Biso   1.000  C
  H49      1.0000 0.34300  0.00410  0.68430  Biso   1.000  H
  O14      1.0000 0.51473  0.18606  0.69280  Biso   1.000  O
  Zn8      1.0000 0.66722  0.56123  0.59073  Biso   1.000  Zn
  N36      1.0000 0.66280  0.62330  0.53520  Biso   1.000  N
  C57      1.0000 0.69990  0.68710  0.53450  Biso   1.000  C
  H50      1.0000 0.72480  0.71220  0.56900  Biso   1.000  H
  C58      1.0000 0.70910  0.67000  0.50890  Biso   1.000  C
  H51      1.0000 0.74760  0.67940  0.50210  Biso   1.000  H
  N37      1.0000 0.73990  0.56520  0.55620  Biso   1.000  N
  C59      1.0000 0.76910  0.58970  0.49170  Biso   1.000  C
  H52      1.0000 0.75540  0.60340  0.45550  Biso   1.000  H
  C60      1.0000 0.75600  0.56310  0.48630  Biso   1.000  C
  H53      1.0000 0.73510  0.56200  0.44640  Biso   1.000  H
  C61      1.0000 0.73350  0.58540  0.43200  Biso   1.000  C
  N38      1.0000 0.69080  0.57300  0.38110  Biso   1.000  N
  N39      1.0000 0.60100  0.48490  0.56020  Biso   1.000  N
  C62      1.0000 0.61180  0.44400  0.53220  Biso   1.000  C
  H54      1.0000 0.64760  0.45000  0.51600  Biso   1.000  H
  C63      1.0000 0.58170  0.46960  0.48820  Biso   1.000  C
  H55      1.0000 0.60120  0.49130  0.44850  Biso   1.000  H
  O15      1.0000 0.46490  0.45130  0.63180  Biso   1.000  O
  N40      1.0000 0.66850  0.58500  0.69110  Biso   1.000  N
  C64      1.0000 0.66390  0.63000  0.71300  Biso   1.000  C
  H56      1.0000 0.66110  0.65700  0.68430  Biso   1.000  H
  O16      1.0000 0.67133  0.48527  0.69280  Biso   1.000  O
  Zn9      1.0000 0.89401  0.33278  0.59073  Biso   1.000  Zn
  N41      1.0000 0.96050  0.33720  0.53520  Biso   1.000  N
  C65      1.0000 0.98720  0.30010  0.53450  Biso   1.000  C
  H57      1.0000 0.98740  0.27520  0.56900  Biso   1.000  H
  C66      1.0000 0.96090  0.29090  0.50890  Biso   1.000  C
  H58      1.0000 0.93180  0.25240  0.50210  Biso   1.000  H
  N42      1.0000 0.82530  0.26010  0.55620  Biso   1.000  N
  C67      1.0000 0.82060  0.23090  0.49170  Biso   1.000  C
  H59      1.0000 0.84800  0.24460  0.45550  Biso   1.000  H
  C68      1.0000 0.80710  0.24400  0.48630  Biso   1.000  C
  H60      1.0000 0.82690  0.26490  0.44640  Biso   1.000  H
  C69      1.0000 0.85190  0.26650  0.43200  Biso   1.000  C
  N43      1.0000 0.88220  0.30920  0.38110  Biso   1.000  N
  N44      1.0000 0.88390  0.39900  0.56020  Biso   1.000  N
  C70      1.0000 0.83220  0.38820  0.53220  Biso   1.000  C
  H61      1.0000 0.80240  0.35240  0.51600  Biso   1.000  H
  C71      1.0000 0.88790  0.41830  0.48820  Biso   1.000  C
  H62      1.0000 0.89010  0.39880  0.44850  Biso   1.000  H
  O17      1.0000 0.98640  0.53510  0.63180  Biso   1.000  O
  N45      1.0000 0.91650  0.33150  0.69110  Biso   1.000  N
  C72      1.0000 0.96610  0.33610  0.71300  Biso   1.000  C
  H63      1.0000 0.99590  0.33890  0.68430  Biso   1.000  H
  O18      1.0000 0.81394  0.32867  0.69280  Biso   1.000  O
  Zn10     1.0000 0.56123  0.89401  0.09073  Biso   1.000  Zn
  N46      1.0000 0.62330  0.96050  0.03520  Biso   1.000  N
  C73      1.0000 0.68710  0.98720  0.03450  Biso   1.000  C
  H64      1.0000 0.71220  0.98740  0.06900  Biso   1.000  H
  C74      1.0000 0.67000  0.96090  0.00890  Biso   1.000  C
  H65      1.0000 0.67940  0.93180  0.00210  Biso   1.000  H
  N47      1.0000 0.56520  0.82530  0.05620  Biso   1.000  N
  C75      1.0000 0.58970  0.82060  0.99170  Biso   1.000  C
  H66      1.0000 0.60340  0.84800  0.95550  Biso   1.000  H
  C76      1.0000 0.56310  0.80710  0.98630  Biso   1.000  C
  H67      1.0000 0.56200  0.82690  0.94640  Biso   1.000  H
  C77      1.0000 0.58540  0.85190  0.93200  Biso   1.000  C
  N48      1.0000 0.57300  0.88220  0.88110  Biso   1.000  N
  N49      1.0000 0.48490  0.88390  0.06020  Biso   1.000  N
  C78      1.0000 0.44400  0.83220  0.03220  Biso   1.000  C
  H68      1.0000 0.45000  0.80240  0.01600  Biso   1.000  H
  C79      1.0000 0.46960  0.88790  0.98820  Biso   1.000  C
  H69      1.0000 0.49130  0.89010  0.94850  Biso   1.000  H
  O19      1.0000 0.45130  0.98640  0.13180  Biso   1.000  O
  N50      1.0000 0.58500  0.91650  0.19110  Biso   1.000  N
  C80      1.0000 0.63000  0.96610  0.21300  Biso   1.000  C
  H70      1.0000 0.65700  0.99590  0.18430  Biso   1.000  H
  O20      1.0000 0.48527  0.81394  0.19280  Biso   1.000  O
  Zn11     1.0000 0.33278  0.43877  0.09073  Biso   1.000  Zn
  N51      1.0000 0.33720  0.37670  0.03520  Biso   1.000  N
  C81      1.0000 0.30010  0.31290  0.03450  Biso   1.000  C
  H71      1.0000 0.27520  0.28780  0.06900  Biso   1.000  H
  C82      1.0000 0.29090  0.33000  0.00890  Biso   1.000  C
  H72      1.0000 0.25240  0.32060  0.00210  Biso   1.000  H
  N52      1.0000 0.26010  0.43480  0.05620  Biso   1.000  N
  C83      1.0000 0.23090  0.41030  0.99170  Biso   1.000  C
  H73      1.0000 0.24460  0.39660  0.95550  Biso   1.000  H
  C84      1.0000 0.24400  0.43690  0.98630  Biso   1.000  C
  H74      1.0000 0.26490  0.43800  0.94640  Biso   1.000  H
  C85      1.0000 0.26650  0.41460  0.93200  Biso   1.000  C
  N53      1.0000 0.30920  0.42700  0.88110  Biso   1.000  N
  N54      1.0000 0.39900  0.51510  0.06020  Biso   1.000  N
  C86      1.0000 0.38820  0.55600  0.03220  Biso   1.000  C
  H75      1.0000 0.35240  0.55000  0.01600  Biso   1.000  H
  C87      1.0000 0.41830  0.53040  0.98820  Biso   1.000  C
  H76      1.0000 0.39880  0.50870  0.94850  Biso   1.000  H
  O21      1.0000 0.53510  0.54870  0.13180  Biso   1.000  O
  N55      1.0000 0.33150  0.41500  0.19110  Biso   1.000  N
  C88      1.0000 0.33610  0.37000  0.21300  Biso   1.000  C
  H77      1.0000 0.33890  0.34300  0.18430  Biso   1.000  H
  O22      1.0000 0.32867  0.51473  0.19280  Biso   1.000  O
  Zn12     1.0000 0.10599  0.66722  0.09073  Biso   1.000  Zn
  N56      1.0000 0.03950  0.66280  0.03520  Biso   1.000  N
  C89      1.0000 0.01280  0.69990  0.03450  Biso   1.000  C
  H78      1.0000 0.01260  0.72480  0.06900  Biso   1.000  H
  C90      1.0000 0.03910  0.70910  0.00890  Biso   1.000  C
  H79      1.0000 0.06820  0.74760  0.00210  Biso   1.000  H
  N57      1.0000 0.17470  0.73990  0.05620  Biso   1.000  N
  C91      1.0000 0.17940  0.76910  0.99170  Biso   1.000  C
  H80      1.0000 0.15200  0.75540  0.95550  Biso   1.000  H
  C92      1.0000 0.19290  0.75600  0.98630  Biso   1.000  C
  H81      1.0000 0.17310  0.73510  0.94640  Biso   1.000  H
  C93      1.0000 0.14810  0.73350  0.93200  Biso   1.000  C
  N58      1.0000 0.11780  0.69080  0.88110  Biso   1.000  N
  N59      1.0000 0.11610  0.60100  0.06020  Biso   1.000  N
  C94      1.0000 0.16780  0.61180  0.03220  Biso   1.000  C
  H82      1.0000 0.19760  0.64760  0.01600  Biso   1.000  H
  C95      1.0000 0.11210  0.58170  0.98820  Biso   1.000  C
  H83      1.0000 0.10990  0.60120  0.94850  Biso   1.000  H
  O23      1.0000 0.01360  0.46490  0.13180  Biso   1.000  O
  N60      1.0000 0.08350  0.66850  0.19110  Biso   1.000  N
  C96      1.0000 0.03390  0.66390  0.21300  Biso   1.000  C
  H84      1.0000 0.00410  0.66110  0.18430  Biso   1.000  H
  O24      1.0000 0.18606  0.67133  0.19280  Biso   1.000  O
  Zn13     1.0000 0.89401  0.56123  0.59073  Biso   1.000  Zn
  N61      1.0000 0.96050  0.62330  0.53520  Biso   1.000  N
  C97      1.0000 0.98720  0.68710  0.53450  Biso   1.000  C
  H85      1.0000 0.98740  0.71220  0.56900  Biso   1.000  H
  C98      1.0000 0.96090  0.67000  0.50890  Biso   1.000  C
  H86      1.0000 0.93180  0.67940  0.50210  Biso   1.000  H
  N62      1.0000 0.82530  0.56520  0.55620  Biso   1.000  N
  C99      1.0000 0.82060  0.58970  0.49170  Biso   1.000  C
  H87      1.0000 0.84800  0.60340  0.45550  Biso   1.000  H
  C100     1.0000 0.80710  0.56310  0.48630  Biso   1.000  C
  H88      1.0000 0.82690  0.56200  0.44640  Biso   1.000  H
  C101     1.0000 0.85190  0.58540  0.43200  Biso   1.000  C
  N63      1.0000 0.88220  0.57300  0.38110  Biso   1.000  N
  N64      1.0000 0.88390  0.48490  0.56020  Biso   1.000  N
  C102     1.0000 0.83220  0.44400  0.53220  Biso   1.000  C
  H89      1.0000 0.80240  0.45000  0.51600  Biso   1.000  H
  C103     1.0000 0.88790  0.46960  0.48820  Biso   1.000  C
  H90      1.0000 0.89010  0.49130  0.44850  Biso   1.000  H
  O25      1.0000 0.98640  0.45130  0.63180  Biso   1.000  O
  N65      1.0000 0.91650  0.58500  0.69110  Biso   1.000  N
  C104     1.0000 0.96610  0.63000  0.71300  Biso   1.000  C
  H91      1.0000 0.99590  0.65700  0.68430  Biso   1.000  H
  O26      1.0000 0.81394  0.48527  0.69280  Biso   1.000  O
  Zn14     1.0000 0.43877  0.33278  0.59073  Biso   1.000  Zn
  N66      1.0000 0.37670  0.33720  0.53520  Biso   1.000  N
  C105     1.0000 0.31290  0.30010  0.53450  Biso   1.000  C
  H92      1.0000 0.28780  0.27520  0.56900  Biso   1.000  H
  C106     1.0000 0.33000  0.29090  0.50890  Biso   1.000  C
  H93      1.0000 0.32060  0.25240  0.50210  Biso   1.000  H
  N67      1.0000 0.43480  0.26010  0.55620  Biso   1.000  N
  C107     1.0000 0.41030  0.23090  0.49170  Biso   1.000  C
  H94      1.0000 0.39660  0.24460  0.45550  Biso   1.000  H
  C108     1.0000 0.43690  0.24400  0.48630  Biso   1.000  C
  H95      1.0000 0.43800  0.26490  0.44640  Biso   1.000  H
  C109     1.0000 0.41460  0.26650  0.43200  Biso   1.000  C
  N68      1.0000 0.42700  0.30920  0.38110  Biso   1.000  N
  N69      1.0000 0.51510  0.39900  0.56020  Biso   1.000  N
  C110     1.0000 0.55600  0.38820  0.53220  Biso   1.000  C
  H96      1.0000 0.55000  0.35240  0.51600  Biso   1.000  H
  C111     1.0000 0.53040  0.41830  0.48820  Biso   1.000  C
  H97      1.0000 0.50870  0.39880  0.44850  Biso   1.000  H
  O27      1.0000 0.54870  0.53510  0.63180  Biso   1.000  O
  N70      1.0000 0.41500  0.33150  0.69110  Biso   1.000  N
  C112     1.0000 0.37000  0.33610  0.71300  Biso   1.000  C
  H98      1.0000 0.34300  0.33890  0.68430  Biso   1.000  H
  O28      1.0000 0.51473  0.32867  0.69280  Biso   1.000  O
  Zn15     1.0000 0.66722  0.10599  0.59073  Biso   1.000  Zn
  N71      1.0000 0.66280  0.03950  0.53520  Biso   1.000  N
  C113     1.0000 0.69990  0.01280  0.53450  Biso   1.000  C
  H99      1.0000 0.72480  0.01260  0.56900  Biso   1.000  H
  C114     1.0000 0.70910  0.03910  0.50890  Biso   1.000  C
  H100     1.0000 0.74760  0.06820  0.50210  Biso   1.000  H
  N72      1.0000 0.73990  0.17470  0.55620  Biso   1.000  N
  C115     1.0000 0.76910  0.17940  0.49170  Biso   1.000  C
  H101     1.0000 0.75540  0.15200  0.45550  Biso   1.000  H
  C116     1.0000 0.75600  0.19290  0.48630  Biso   1.000  C
  H102     1.0000 0.73510  0.17310  0.44640  Biso   1.000  H
  C117     1.0000 0.73350  0.14810  0.43200  Biso   1.000  C
  N73      1.0000 0.69080  0.11780  0.38110  Biso   1.000  N
  N74      1.0000 0.60100  0.11610  0.56020  Biso   1.000  N
  C118     1.0000 0.61180  0.16780  0.53220  Biso   1.000  C
  H103     1.0000 0.64760  0.19760  0.51600  Biso   1.000  H
  C119     1.0000 0.58170  0.11210  0.48820  Biso   1.000  C
  H104     1.0000 0.60120  0.10990  0.44850  Biso   1.000  H
  O29      1.0000 0.46490  0.01360  0.63180  Biso   1.000  O
  N75      1.0000 0.66850  0.08350  0.69110  Biso   1.000  N
  C120     1.0000 0.66390  0.03390  0.71300  Biso   1.000  C
  H105     1.0000 0.66110  0.00410  0.68430  Biso   1.000  H
  O30      1.0000 0.67133  0.18606  0.69280  Biso   1.000  O
  Zn16     1.0000 0.10599  0.43877  0.09073  Biso   1.000  Zn
  N76      1.0000 0.03950  0.37670  0.03520  Biso   1.000  N
  C121     1.0000 0.01280  0.31290  0.03450  Biso   1.000  C
  H106     1.0000 0.01260  0.28780  0.06900  Biso   1.000  H
  C122     1.0000 0.03910  0.33000  0.00890  Biso   1.000  C
  H107     1.0000 0.06820  0.32060  0.00210  Biso   1.000  H
  N77      1.0000 0.17470  0.43480  0.05620  Biso   1.000  N
  C123     1.0000 0.17940  0.41030  0.99170  Biso   1.000  C
  H108     1.0000 0.15200  0.39660  0.95550  Biso   1.000  H
  C124     1.0000 0.19290  0.43690  0.98630  Biso   1.000  C
  H109     1.0000 0.17310  0.43800  0.94640  Biso   1.000  H
  C125     1.0000 0.14810  0.41460  0.93200  Biso   1.000  C
  N78      1.0000 0.11780  0.42700  0.88110  Biso   1.000  N
  N79      1.0000 0.11610  0.51510  0.06020  Biso   1.000  N
  C126     1.0000 0.16780  0.55600  0.03220  Biso   1.000  C
  H110     1.0000 0.19760  0.55000  0.01600  Biso   1.000  H
  C127     1.0000 0.11210  0.53040  0.98820  Biso   1.000  C
  H111     1.0000 0.10990  0.50870  0.94850  Biso   1.000  H
  O31      1.0000 0.01360  0.54870  0.13180  Biso   1.000  O
  N80      1.0000 0.08350  0.41500  0.19110  Biso   1.000  N
  C128     1.0000 0.03390  0.37000  0.21300  Biso   1.000  C
  H112     1.0000 0.00410  0.34300  0.18430  Biso   1.000  H
  O32      1.0000 0.18606  0.51473  0.19280  Biso   1.000  O
  Zn17     1.0000 0.56123  0.66722  0.09073  Biso   1.000  Zn
  N81      1.0000 0.62330  0.66280  0.03520  Biso   1.000  N
  C129     1.0000 0.68710  0.69990  0.03450  Biso   1.000  C
  H113     1.0000 0.71220  0.72480  0.06900  Biso   1.000  H
  C130     1.0000 0.67000  0.70910  0.00890  Biso   1.000  C
  H114     1.0000 0.67940  0.74760  0.00210  Biso   1.000  H
  N82      1.0000 0.56520  0.73990  0.05620  Biso   1.000  N
  C131     1.0000 0.58970  0.76910  0.99170  Biso   1.000  C
  H115     1.0000 0.60340  0.75540  0.95550  Biso   1.000  H
  C132     1.0000 0.56310  0.75600  0.98630  Biso   1.000  C
  H116     1.0000 0.56200  0.73510  0.94640  Biso   1.000  H
  C133     1.0000 0.58540  0.73350  0.93200  Biso   1.000  C
  N83      1.0000 0.57300  0.69080  0.88110  Biso   1.000  N
  N84      1.0000 0.48490  0.60100  0.06020  Biso   1.000  N
  C134     1.0000 0.44400  0.61180  0.03220  Biso   1.000  C
  H117     1.0000 0.45000  0.64760  0.01600  Biso   1.000  H
  C135     1.0000 0.46960  0.58170  0.98820  Biso   1.000  C
  H118     1.0000 0.49130  0.60120  0.94850  Biso   1.000  H
  O33      1.0000 0.45130  0.46490  0.13180  Biso   1.000  O
  N85      1.0000 0.58500  0.66850  0.19110  Biso   1.000  N
  C136     1.0000 0.63000  0.66390  0.21300  Biso   1.000  C
  H119     1.0000 0.65700  0.66110  0.18430  Biso   1.000  H
  O34      1.0000 0.48527  0.67133  0.19280  Biso   1.000  O
  Zn18     1.0000 0.33278  0.89401  0.09073  Biso   1.000  Zn
  N86      1.0000 0.33720  0.96050  0.03520  Biso   1.000  N
  C137     1.0000 0.30010  0.98720  0.03450  Biso   1.000  C
  H120     1.0000 0.27520  0.98740  0.06900  Biso   1.000  H
  C138     1.0000 0.29090  0.96090  0.00890  Biso   1.000  C
  H121     1.0000 0.25240  0.93180  0.00210  Biso   1.000  H
  N87      1.0000 0.26010  0.82530  0.05620  Biso   1.000  N
  C139     1.0000 0.23090  0.82060  0.99170  Biso   1.000  C
  H122     1.0000 0.24460  0.84800  0.95550  Biso   1.000  H
  C140     1.0000 0.24400  0.80710  0.98630  Biso   1.000  C
  H123     1.0000 0.26490  0.82690  0.94640  Biso   1.000  H
  C141     1.0000 0.26650  0.85190  0.93200  Biso   1.000  C
  N88      1.0000 0.30920  0.88220  0.88110  Biso   1.000  N
  N89      1.0000 0.39900  0.88390  0.06020  Biso   1.000  N
  C142     1.0000 0.38820  0.83220  0.03220  Biso   1.000  C
  H124     1.0000 0.35240  0.80240  0.01600  Biso   1.000  H
  C143     1.0000 0.41830  0.88790  0.98820  Biso   1.000  C
  H125     1.0000 0.39880  0.89010  0.94850  Biso   1.000  H
  O35      1.0000 0.53510  0.98640  0.13180  Biso   1.000  O
  N90      1.0000 0.33150  0.91650  0.19110  Biso   1.000  N
  C144     1.0000 0.33610  0.96610  0.21300  Biso   1.000  C
  H126     1.0000 0.33890  0.99590  0.18430  Biso   1.000  H
  O36      1.0000 0.32867  0.81394  0.19280  Biso   1.000  O
  Zn19     1.0000 0.56123  0.89401  0.40927  Biso   1.000  Zn
  N91      1.0000 0.62330  0.96050  0.46480  Biso   1.000  N
  C145     1.0000 0.68710  0.98720  0.46550  Biso   1.000  C
  H127     1.0000 0.71220  0.98740  0.43100  Biso   1.000  H
  C146     1.0000 0.67000  0.96090  0.49110  Biso   1.000  C
  H128     1.0000 0.67940  0.93180  0.49790  Biso   1.000  H
  N92      1.0000 0.56520  0.82530  0.44380  Biso   1.000  N
  C147     1.0000 0.58970  0.82060  0.50830  Biso   1.000  C
  H129     1.0000 0.60340  0.84800  0.54450  Biso   1.000  H
  C148     1.0000 0.56310  0.80710  0.51370  Biso   1.000  C
  H130     1.0000 0.56200  0.82690  0.55360  Biso   1.000  H
  C149     1.0000 0.58540  0.85190  0.56800  Biso   1.000  C
  N93      1.0000 0.57300  0.88220  0.61890  Biso   1.000  N
  N94      1.0000 0.48490  0.88390  0.43980  Biso   1.000  N
  C150     1.0000 0.44400  0.83220  0.46780  Biso   1.000  C
  H131     1.0000 0.45000  0.80240  0.48400  Biso   1.000  H
  C151     1.0000 0.46960  0.88790  0.51180  Biso   1.000  C
  H132     1.0000 0.49130  0.89010  0.55150  Biso   1.000  H
  O37      1.0000 0.45130  0.98640  0.36820  Biso   1.000  O
  N95      1.0000 0.58500  0.91650  0.30890  Biso   1.000  N
  C152     1.0000 0.63000  0.96610  0.28700  Biso   1.000  C
  H133     1.0000 0.65700  0.99590  0.31570  Biso   1.000  H
  O38      1.0000 0.48527  0.81394  0.30720  Biso   1.000  O
  Zn20     1.0000 0.33278  0.43877  0.40927  Biso   1.000  Zn
  N96      1.0000 0.33720  0.37670  0.46480  Biso   1.000  N
  C153     1.0000 0.30010  0.31290  0.46550  Biso   1.000  C
  H134     1.0000 0.27520  0.28780  0.43100  Biso   1.000  H
  C154     1.0000 0.29090  0.33000  0.49110  Biso   1.000  C
  H135     1.0000 0.25240  0.32060  0.49790  Biso   1.000  H
  N97      1.0000 0.26010  0.43480  0.44380  Biso   1.000  N
  C155     1.0000 0.23090  0.41030  0.50830  Biso   1.000  C
  H136     1.0000 0.24460  0.39660  0.54450  Biso   1.000  H
  C156     1.0000 0.24400  0.43690  0.51370  Biso   1.000  C
  H137     1.0000 0.26490  0.43800  0.55360  Biso   1.000  H
  C157     1.0000 0.26650  0.41460  0.56800  Biso   1.000  C
  N98      1.0000 0.30920  0.42700  0.61890  Biso   1.000  N
  N99      1.0000 0.39900  0.51510  0.43980  Biso   1.000  N
  C158     1.0000 0.38820  0.55600  0.46780  Biso   1.000  C
  H138     1.0000 0.35240  0.55000  0.48400  Biso   1.000  H
  C159     1.0000 0.41830  0.53040  0.51180  Biso   1.000  C
  H139     1.0000 0.39880  0.50870  0.55150  Biso   1.000  H
  O39      1.0000 0.53510  0.54870  0.36820  Biso   1.000  O
  N100     1.0000 0.33150  0.41500  0.30890  Biso   1.000  N
  C160     1.0000 0.33610  0.37000  0.28700  Biso   1.000  C
  H140     1.0000 0.33890  0.34300  0.31570  Biso   1.000  H
  O40      1.0000 0.32867  0.51473  0.30720  Biso   1.000  O
  Zn21     1.0000 0.10599  0.66722  0.40927  Biso   1.000  Zn
  N101     1.0000 0.03950  0.66280  0.46480  Biso   1.000  N
  C161     1.0000 0.01280  0.69990  0.46550  Biso   1.000  C
  H141     1.0000 0.01260  0.72480  0.43100  Biso   1.000  H
  C162     1.0000 0.03910  0.70910  0.49110  Biso   1.000  C
  H142     1.0000 0.06820  0.74760  0.49790  Biso   1.000  H
  N102     1.0000 0.17470  0.73990  0.44380  Biso   1.000  N
  C163     1.0000 0.17940  0.76910  0.50830  Biso   1.000  C
  H143     1.0000 0.15200  0.75540  0.54450  Biso   1.000  H
  C164     1.0000 0.19290  0.75600  0.51370  Biso   1.000  C
  H144     1.0000 0.17310  0.73510  0.55360  Biso   1.000  H
  C165     1.0000 0.14810  0.73350  0.56800  Biso   1.000  C
  N103     1.0000 0.11780  0.69080  0.61890  Biso   1.000  N
  N104     1.0000 0.11610  0.60100  0.43980  Biso   1.000  N
  C166     1.0000 0.16780  0.61180  0.46780  Biso   1.000  C
  H145     1.0000 0.19760  0.64760  0.48400  Biso   1.000  H
  C167     1.0000 0.11210  0.58170  0.51180  Biso   1.000  C
  H146     1.0000 0.10990  0.60120  0.55150  Biso   1.000  H
  O41      1.0000 0.01360  0.46490  0.36820  Biso   1.000  O
  N105     1.0000 0.08350  0.66850  0.30890  Biso   1.000  N
  C168     1.0000 0.03390  0.66390  0.28700  Biso   1.000  C
  H147     1.0000 0.00410  0.66110  0.31570  Biso   1.000  H
  O42      1.0000 0.18606  0.67133  0.30720  Biso   1.000  O
  Zn22     1.0000 0.43877  0.10599  0.90927  Biso   1.000  Zn
  N106     1.0000 0.37670  0.03950  0.96480  Biso   1.000  N
  C169     1.0000 0.31290  0.01280  0.96550  Biso   1.000  C
  H148     1.0000 0.28780  0.01260  0.93100  Biso   1.000  H
  C170     1.0000 0.33000  0.03910  0.99110  Biso   1.000  C
  H149     1.0000 0.32060  0.06820  0.99790  Biso   1.000  H
  N107     1.0000 0.43480  0.17470  0.94380  Biso   1.000  N
  C171     1.0000 0.41030  0.17940  0.00830  Biso   1.000  C
  H150     1.0000 0.39660  0.15200  0.04450  Biso   1.000  H
  C172     1.0000 0.43690  0.19290  0.01370  Biso   1.000  C
  H151     1.0000 0.43800  0.17310  0.05360  Biso   1.000  H
  C173     1.0000 0.41460  0.14810  0.06800  Biso   1.000  C
  N108     1.0000 0.42700  0.11780  0.11890  Biso   1.000  N
  N109     1.0000 0.51510  0.11610  0.93980  Biso   1.000  N
  C174     1.0000 0.55600  0.16780  0.96780  Biso   1.000  C
  H152     1.0000 0.55000  0.19760  0.98400  Biso   1.000  H
  C175     1.0000 0.53040  0.11210  0.01180  Biso   1.000  C
  H153     1.0000 0.50870  0.10990  0.05150  Biso   1.000  H
  O43      1.0000 0.54870  0.01360  0.86820  Biso   1.000  O
  N110     1.0000 0.41500  0.08350  0.80890  Biso   1.000  N
  C176     1.0000 0.37000  0.03390  0.78700  Biso   1.000  C
  H154     1.0000 0.34300  0.00410  0.81570  Biso   1.000  H
  O44      1.0000 0.51473  0.18606  0.80720  Biso   1.000  O
  Zn23     1.0000 0.66722  0.56123  0.90927  Biso   1.000  Zn
  N111     1.0000 0.66280  0.62330  0.96480  Biso   1.000  N
  C177     1.0000 0.69990  0.68710  0.96550  Biso   1.000  C
  H155     1.0000 0.72480  0.71220  0.93100  Biso   1.000  H
  C178     1.0000 0.70910  0.67000  0.99110  Biso   1.000  C
  H156     1.0000 0.74760  0.67940  0.99790  Biso   1.000  H
  N112     1.0000 0.73990  0.56520  0.94380  Biso   1.000  N
  C179     1.0000 0.76910  0.58970  0.00830  Biso   1.000  C
  H157     1.0000 0.75540  0.60340  0.04450  Biso   1.000  H
  C180     1.0000 0.75600  0.56310  0.01370  Biso   1.000  C
  H158     1.0000 0.73510  0.56200  0.05360  Biso   1.000  H
  C181     1.0000 0.73350  0.58540  0.06800  Biso   1.000  C
  N113     1.0000 0.69080  0.57300  0.11890  Biso   1.000  N
  N114     1.0000 0.60100  0.48490  0.93980  Biso   1.000  N
  C182     1.0000 0.61180  0.44400  0.96780  Biso   1.000  C
  H159     1.0000 0.64760  0.45000  0.98400  Biso   1.000  H
  C183     1.0000 0.58170  0.46960  0.01180  Biso   1.000  C
  H160     1.0000 0.60120  0.49130  0.05150  Biso   1.000  H
  O45      1.0000 0.46490  0.45130  0.86820  Biso   1.000  O
  N115     1.0000 0.66850  0.58500  0.80890  Biso   1.000  N
  C184     1.0000 0.66390  0.63000  0.78700  Biso   1.000  C
  H161     1.0000 0.66110  0.65700  0.81570  Biso   1.000  H
  O46      1.0000 0.67133  0.48527  0.80720  Biso   1.000  O
  Zn24     1.0000 0.89401  0.33278  0.90927  Biso   1.000  Zn
  N116     1.0000 0.96050  0.33720  0.96480  Biso   1.000  N
  C185     1.0000 0.98720  0.30010  0.96550  Biso   1.000  C
  H162     1.0000 0.98740  0.27520  0.93100  Biso   1.000  H
  C186     1.0000 0.96090  0.29090  0.99110  Biso   1.000  C
  H163     1.0000 0.93180  0.25240  0.99790  Biso   1.000  H
  N117     1.0000 0.82530  0.26010  0.94380  Biso   1.000  N
  C187     1.0000 0.82060  0.23090  0.00830  Biso   1.000  C
  H164     1.0000 0.84800  0.24460  0.04450  Biso   1.000  H
  C188     1.0000 0.80710  0.24400  0.01370  Biso   1.000  C
  H165     1.0000 0.82690  0.26490  0.05360  Biso   1.000  H
  C189     1.0000 0.85190  0.26650  0.06800  Biso   1.000  C
  N118     1.0000 0.88220  0.30920  0.11890  Biso   1.000  N
  N119     1.0000 0.88390  0.39900  0.93980  Biso   1.000  N
  C190     1.0000 0.83220  0.38820  0.96780  Biso   1.000  C
  H166     1.0000 0.80240  0.35240  0.98400  Biso   1.000  H
  C191     1.0000 0.88790  0.41830  0.01180  Biso   1.000  C
  H167     1.0000 0.89010  0.39880  0.05150  Biso   1.000  H
  O47      1.0000 0.98640  0.53510  0.86820  Biso   1.000  O
  N120     1.0000 0.91650  0.33150  0.80890  Biso   1.000  N
  C192     1.0000 0.96610  0.33610  0.78700  Biso   1.000  C
  H168     1.0000 0.99590  0.33890  0.81570  Biso   1.000  H
  O48      1.0000 0.81394  0.32867  0.80720  Biso   1.000  O
  C193     1.0000 0.00000  0.38300  0.50000  Biso   1.000  C
  H169     1.0000 0.00000  0.41820  0.50000  Biso   1.000  H
  C194     1.0000 0.61700  0.61700  0.50000  Biso   1.000  C
  H170     1.0000 0.58180  0.58180  0.50000  Biso   1.000  H
  C195     1.0000 0.38300  0.00000  0.50000  Biso   1.000  C
  H171     1.0000 0.41820  0.00000  0.50000  Biso   1.000  H
  C196     1.0000 0.00000  0.61700  0.00000  Biso   1.000  C
  H172     1.0000 0.00000  0.58180  0.00000  Biso   1.000  H
  C197     1.0000 0.38300  0.38300  0.00000  Biso   1.000  C
  H173     1.0000 0.41820  0.41820  0.00000  Biso   1.000  H
  C198     1.0000 0.61700  0.00000  0.00000  Biso   1.000  C
  H174     1.0000 0.58180  0.00000  0.00000  Biso   1.000  H
  C199     1.0000 0.00000  0.61700  0.50000  Biso   1.000  C
  H175     1.0000 0.00000  0.58180  0.50000  Biso   1.000  H
  C200     1.0000 0.38300  0.38300  0.50000  Biso   1.000  C
  H176     1.0000 0.41820  0.41820  0.50000  Biso   1.000  H
  C201     1.0000 0.61700  0.00000  0.50000  Biso   1.000  C
  H177     1.0000 0.58180  0.00000  0.50000  Biso   1.000  H
  C202     1.0000 0.00000  0.38300  0.00000  Biso   1.000  C
  H178     1.0000 0.00000  0.41820  0.00000  Biso   1.000  H
  C203     1.0000 0.61700  0.61700  0.00000  Biso   1.000  C
  H179     1.0000 0.58180  0.58180  0.00000  Biso   1.000  H
  C204     1.0000 0.38300  0.00000  0.00000  Biso   1.000  C
  H180     1.0000 0.41820  0.00000  0.00000  Biso   1.000  H
  C205     1.0000 0.21935  0.43870  0.40750  Biso   1.000  C
  H181     1.0000 0.22190  0.44380  0.35880  Biso   1.000  H
  C206     1.0000 0.56130  0.78065  0.40750  Biso   1.000  C
  H182     1.0000 0.55620  0.77810  0.35880  Biso   1.000  H
  C207     1.0000 0.21935  0.78065  0.40750  Biso   1.000  C
  H183     1.0000 0.22190  0.77810  0.35880  Biso   1.000  H
  C208     1.0000 0.78065  0.56130  0.90750  Biso   1.000  C
  H184     1.0000 0.77810  0.55620  0.85880  Biso   1.000  H
  C209     1.0000 0.43870  0.21935  0.90750  Biso   1.000  C
  H185     1.0000 0.44380  0.22190  0.85880  Biso   1.000  H
  C210     1.0000 0.78065  0.21935  0.90750  Biso   1.000  C
  H186     1.0000 0.77810  0.22190  0.85880  Biso   1.000  H
  C211     1.0000 0.43870  0.21935  0.59250  Biso   1.000  C
  H187     1.0000 0.44380  0.22190  0.64120  Biso   1.000  H
  C212     1.0000 0.78065  0.56130  0.59250  Biso   1.000  C
  H188     1.0000 0.77810  0.55620  0.64120  Biso   1.000  H
  C213     1.0000 0.78065  0.21935  0.59250  Biso   1.000  C
  H189     1.0000 0.77810  0.22190  0.64120  Biso   1.000  H
  C214     1.0000 0.56130  0.78065  0.09250  Biso   1.000  C
  H190     1.0000 0.55620  0.77810  0.14120  Biso   1.000  H
  C215     1.0000 0.21935  0.43870  0.09250  Biso   1.000  C
  H191     1.0000 0.22190  0.44380  0.14120  Biso   1.000  H
  C216     1.0000 0.21935  0.78065  0.09250  Biso   1.000  C
  H192     1.0000 0.22190  0.77810  0.14120  Biso   1.000  H
  C217     1.0000 0.10170  0.55085  0.41130  Biso   1.000  C
  N121     1.0000 0.03870  0.51935  0.37470  Biso   1.000  N
  C218     1.0000 0.44915  0.55085  0.41130  Biso   1.000  C
  N122     1.0000 0.48065  0.51935  0.37470  Biso   1.000  N
  C219     1.0000 0.44915  0.89830  0.41130  Biso   1.000  C
  N123     1.0000 0.48065  0.96130  0.37470  Biso   1.000  N
  C220     1.0000 0.89830  0.44915  0.91130  Biso   1.000  C
  N124     1.0000 0.96130  0.48065  0.87470  Biso   1.000  N
  C221     1.0000 0.55085  0.44915  0.91130  Biso   1.000  C
  N125     1.0000 0.51935  0.48065  0.87470  Biso   1.000  N
  C222     1.0000 0.55085  0.10170  0.91130  Biso   1.000  C
  N126     1.0000 0.51935  0.03870  0.87470  Biso   1.000  N
  C223     1.0000 0.55085  0.10170  0.58870  Biso   1.000  C
  N127     1.0000 0.51935  0.03870  0.62530  Biso   1.000  N
  C224     1.0000 0.55085  0.44915  0.58870  Biso   1.000  C
  N128     1.0000 0.51935  0.48065  0.62530  Biso   1.000  N
  C225     1.0000 0.89830  0.44915  0.58870  Biso   1.000  C
  N129     1.0000 0.96130  0.48065  0.62530  Biso   1.000  N
  C226     1.0000 0.44915  0.89830  0.08870  Biso   1.000  C
  N130     1.0000 0.48065  0.96130  0.12530  Biso   1.000  N
  C227     1.0000 0.44915  0.55085  0.08870  Biso   1.000  C
  N131     1.0000 0.48065  0.51935  0.12530  Biso   1.000  N
  C228     1.0000 0.10170  0.55085  0.08870  Biso   1.000  C
  N132     1.0000 0.03870  0.51935  0.12530  Biso   1.000  N
  C229     1.0000 0.11030  0.44060  0.25000  Biso   1.000  C
  N133     1.0000 0.16460  0.49350  0.25000  Biso   1.000  N
  C230     1.0000 0.55940  0.66970  0.25000  Biso   1.000  C
  N134     1.0000 0.50650  0.67110  0.25000  Biso   1.000  N
  C231     1.0000 0.33030  0.88970  0.25000  Biso   1.000  C
  N135     1.0000 0.32890  0.83540  0.25000  Biso   1.000  N
  C232     1.0000 0.88970  0.55940  0.75000  Biso   1.000  C
  N136     1.0000 0.83540  0.50650  0.75000  Biso   1.000  N
  C233     1.0000 0.44060  0.33030  0.75000  Biso   1.000  C
  N137     1.0000 0.49350  0.32890  0.75000  Biso   1.000  N
  C234     1.0000 0.66970  0.11030  0.75000  Biso   1.000  C
  N138     1.0000 0.67110  0.16460  0.75000  Biso   1.000  N
  C235     1.0000 0.44060  0.11030  0.75000  Biso   1.000  C
  N139     1.0000 0.49350  0.16460  0.75000  Biso   1.000  N
  C236     1.0000 0.66970  0.55940  0.75000  Biso   1.000  C
  N140     1.0000 0.67110  0.50650  0.75000  Biso   1.000  N
  C237     1.0000 0.88970  0.33030  0.75000  Biso   1.000  C
  N141     1.0000 0.83540  0.32890  0.75000  Biso   1.000  N
  C238     1.0000 0.55940  0.88970  0.25000  Biso   1.000  C
  N142     1.0000 0.50650  0.83540  0.25000  Biso   1.000  N
  C239     1.0000 0.33030  0.44060  0.25000  Biso   1.000  C
  N143     1.0000 0.32890  0.49350  0.25000  Biso   1.000  N
  C240     1.0000 0.11030  0.66970  0.25000  Biso   1.000  C
  N144     1.0000 0.16460  0.67110  0.25000  Biso   1.000  N
