data_image0
_cell_length_a       25.299
_cell_length_b       25.299
_cell_length_c       166.828
_cell_angle_alpha    90
_cell_angle_beta     90
_cell_angle_gamma    120

_symmetry_space_group_name_H-M    "P 1"
_symmetry_int_tables_number       1

loop_
  _symmetry_equiv_pos_as_xyz
  'x, y, z'

loop_
  _atom_site_label
  _atom_site_occupancy
  _atom_site_fract_x
  _atom_site_fract_y
  _atom_site_fract_z
  _atom_site_thermal_displace_type
  _atom_site_B_iso_or_equiv
  _atom_site_type_symbol
  Zn1      1.0000 0.65912  0.99951  0.41159  Biso   1.000  Zn
  Zn2      1.0000 0.68825  0.93074  0.42511  Biso   1.000  Zn
  Zn3      1.0000 0.75766  0.07301  0.42518  Biso   1.000  Zn
  Zn4      1.0000 0.78537  0.00073  0.41143  Biso   1.000  Zn
  Zn5      1.0000 0.58766  0.26879  0.49539  Biso   1.000  Zn
  Zn6      1.0000 0.93925  0.91943  0.33393  Biso   1.000  Zn
  O1       1.0000 0.72291  0.00149  0.41806  Biso   1.000  O
  O2       1.0000 0.72679  0.12590  0.42074  Biso   1.000  O
  O3       1.0000 0.60570  0.87474  0.42165  Biso   1.000  O
  O4       1.0000 0.67178  0.99030  0.40016  Biso   1.000  O
  O5       1.0000 0.57831  0.92560  0.41354  Biso   1.000  O
  O6       1.0000 0.67910  0.94440  0.43631  Biso   1.000  O
  O7       1.0000 0.65238  0.07375  0.41201  Biso   1.000  O
  O8       1.0000 0.72770  0.88360  0.42453  Biso   1.000  O
  O9       1.0000 0.79540  0.92970  0.41435  Biso   1.000  O
  O10      1.0000 0.75780  0.98520  0.40032  Biso   1.000  O
  C1       1.0000 0.68120  0.17520  0.41483  Biso   1.000  C
  O11      1.0000 0.70440  0.04160  0.43482  Biso   1.000  O
  C2       1.0000 0.68680  0.12090  0.41570  Biso   1.000  C
  O12      1.0000 0.41060  0.73120  0.35254  Biso   1.000  O
  O13      1.0000 0.40060  0.74030  0.48458  Biso   1.000  O
  O14      1.0000 0.44200  0.78920  0.34203  Biso   1.000  O
  O15      1.0000 0.45890  0.78060  0.49553  Biso   1.000  O
  O16      1.0000 0.59780  0.21050  0.48906  Biso   1.000  O
  C3       1.0000 0.56730  0.87950  0.41714  Biso   1.000  C
  C4       1.0000 0.50590  0.82440  0.41644  Biso   1.000  C
  C5       1.0000 0.71950  0.22820  0.41891  Biso   1.000  C
  H1       1.0000 0.74810  0.22920  0.42250  Biso   1.000  H
  O17      1.0000 0.70010  0.24840  0.48883  Biso   1.000  O
  C6       1.0000 0.71100  0.98190  0.39693  Biso   1.000  C
  S1       1.0000 0.85243  0.85249  0.41516  Biso   1.000  S
  C7       1.0000 0.67280  0.28140  0.41270  Biso   1.000  C
  C8       1.0000 0.39240  0.71950  0.41509  Biso   1.000  C
  C9       1.0000 0.66580  0.99580  0.44715  Biso   1.000  C
  N1       1.0000 0.67800  0.92140  0.36365  Biso   1.000  N
  C10      1.0000 0.64020  0.17750  0.40967  Biso   1.000  C
  H2       1.0000 0.61480  0.14260  0.40670  Biso   1.000  H
  C11      1.0000 0.43620  0.72030  0.41961  Biso   1.000  C
  H3       1.0000 0.42850  0.68520  0.42240  Biso   1.000  H
  C12      1.0000 0.71500  0.28080  0.41760  Biso   1.000  C
  H4       1.0000 0.74220  0.31660  0.42020  Biso   1.000  H
  C13      1.0000 0.49330  0.77240  0.42028  Biso   1.000  C
  H5       1.0000 0.52320  0.77150  0.42340  Biso   1.000  H
  N2       1.0000 0.60390  0.99510  0.47060  Biso   1.000  N
  C14      1.0000 0.62490  0.99400  0.46286  Biso   1.000  C
  C15      1.0000 0.63450  0.22890  0.40859  Biso   1.000  C
  H6       1.0000 0.60500  0.22770  0.40510  Biso   1.000  H
  C16      1.0000 0.46160  0.82400  0.41174  Biso   1.000  C
  H7       1.0000 0.46920  0.85880  0.40890  Biso   1.000  H
  C17      1.0000 0.65510  0.96380  0.38409  Biso   1.000  C
  H8       1.0000 0.62800  0.97230  0.38680  Biso   1.000  H
  C18      1.0000 0.40580  0.77190  0.41123  Biso   1.000  C
  H9       1.0000 0.37570  0.77240  0.40810  Biso   1.000  H
  C19      1.0000 0.44540  0.78120  0.48797  Biso   1.000  C
  C20      1.0000 0.65080  0.94720  0.45245  Biso   1.000  C
  H10      1.0000 0.65290  0.91340  0.45070  Biso   1.000  H
  C21      1.0000 0.70400  0.96720  0.38830  Biso   1.000  C
  C22      1.0000 0.63720  0.15660  0.48236  Biso   1.000  C
  C23      1.0000 0.61360  0.04960  0.47434  Biso   1.000  C
  C24      1.0000 0.68380  0.99230  0.43884  Biso   1.000  C
  C25      1.0000 0.64520  0.94860  0.37617  Biso   1.000  C
  H11      1.0000 0.61100  0.94450  0.37350  Biso   1.000  H
  C26      1.0000 0.50700  0.81450  0.35312  Biso   1.000  C
  C27      1.0000 0.63300  0.94830  0.46029  Biso   1.000  C
  H12      1.0000 0.62670  0.91700  0.46380  Biso   1.000  H
  C28      1.0000 0.48750  0.83480  0.48349  Biso   1.000  C
  C29      1.0000 0.47740  0.83870  0.47533  Biso   1.000  C
  H13      1.0000 0.44530  0.80580  0.47270  Biso   1.000  H
  C30      1.0000 0.73040  0.93540  0.35881  Biso   1.000  C
  C31      1.0000 0.68910  0.93940  0.37217  Biso   1.000  C
  C32      1.0000 0.45160  0.77590  0.34897  Biso   1.000  C
  C33      1.0000 0.77120  0.89160  0.41974  Biso   1.000  C
  C34      1.0000 0.87720  0.97250  0.34337  Biso   1.000  C
  C35      1.0000 0.56670  0.94020  0.47474  Biso   1.000  C
  C36      1.0000 0.51860  0.80310  0.36069  Biso   1.000  C
  H14      1.0000 0.48750  0.77070  0.36350  Biso   1.000  H
  C37      1.0000 0.63970  0.04430  0.45762  Biso   1.000  C
  H15      1.0000 0.63670  0.07750  0.45940  Biso   1.000  H
  C38      1.0000 0.65830  0.04290  0.44999  Biso   1.000  C
  H16      1.0000 0.66620  0.07500  0.44660  Biso   1.000  H
  C39      1.0000 0.56770  0.05400  0.47747  Biso   1.000  C
  H17      1.0000 0.52810  0.02140  0.47700  Biso   1.000  H
  C40      1.0000 0.57760  0.10720  0.48157  Biso   1.000  C
  H18      1.0000 0.54490  0.10930  0.48370  Biso   1.000  H
  C41      1.0000 0.78010  0.99370  0.35793  Biso   1.000  C
  H19      1.0000 0.78220  0.02580  0.36090  Biso   1.000  H
  C42      1.0000 0.67070  0.09810  0.47493  Biso   1.000  C
  H20      1.0000 0.70360  0.09670  0.47270  Biso   1.000  H
  C43      1.0000 0.77930  0.89980  0.34988  Biso   1.000  C
  H21      1.0000 0.77970  0.86810  0.34710  Biso   1.000  H
  C44      1.0000 0.57290  0.83660  0.36428  Biso   1.000  C
  H22      1.0000 0.57900  0.82650  0.36940  Biso   1.000  H
  C45      1.0000 0.73080  0.88670  0.35493  Biso   1.000  C
  H23      1.0000 0.69940  0.84680  0.35570  Biso   1.000  H
  C46      1.0000 0.61780  0.88390  0.36055  Biso   1.000  C
  C47      1.0000 0.64780  0.20820  0.48680  Biso   1.000  C
  C48      1.0000 0.74520  0.95730  0.38414  Biso   1.000  C
  H24      1.0000 0.77730  0.95790  0.38690  Biso   1.000  H
  C49      1.0000 0.55180  0.86290  0.34929  Biso   1.000  C
  H25      1.0000 0.54420  0.87240  0.34420  Biso   1.000  H
  C50      1.0000 0.82510  0.00390  0.35287  Biso   1.000  C
  H26      1.0000 0.85660  0.04370  0.35200  Biso   1.000  H
  C51      1.0000 0.57870  0.93520  0.48262  Biso   1.000  C
  H27      1.0000 0.61210  0.96760  0.48510  Biso   1.000  H
  C52      1.0000 0.74080  0.94690  0.37619  Biso   1.000  C
  H28      1.0000 0.77150  0.94470  0.37340  Biso   1.000  H
  C53      1.0000 0.60940  0.89960  0.35272  Biso   1.000  C
  H29      1.0000 0.64050  0.93250  0.35000  Biso   1.000  H
  C54      1.0000 0.67970  0.14980  0.47891  Biso   1.000  C
  H30      1.0000 0.71940  0.18260  0.47920  Biso   1.000  H
  C55      1.0000 0.89700  0.77180  0.41784  Biso   1.000  C
  C56      1.0000 0.51470  0.89080  0.47117  Biso   1.000  C
  H31      1.0000 0.50570  0.89380  0.46580  Biso   1.000  H
  C57      1.0000 0.53960  0.87970  0.48714  Biso   1.000  C
  H32      1.0000 0.54950  0.87480  0.49230  Biso   1.000  H
  O18      1.0000 0.88470  0.72500  0.42459  Biso   1.000  O
  C58      1.0000 0.79340  0.75910  0.42295  Biso   1.000  C
  H33      1.0000 0.77870  0.71930  0.42470  Biso   1.000  H
  C59      1.0000 0.76110  0.79060  0.42403  Biso   1.000  C
  H34      1.0000 0.72430  0.77560  0.42670  Biso   1.000  H
  C60      1.0000 0.79190  0.84560  0.42051  Biso   1.000  C
  C61      1.0000 0.84710  0.79090  0.41914  Biso   1.000  C
  O19      1.0000 0.88090  0.92620  0.34090  Biso   1.000  O
  O20      1.0000 0.91430  0.02770  0.34127  Biso   1.000  O
  C62      1.0000 0.82630  0.95760  0.34889  Biso   1.000  C
  O21      1.0000 0.93400  0.80190  0.41285  Biso   1.000  O
  O22      1.0000 0.83890  0.12470  0.41846  Biso   1.000  O
  C63      1.0000 0.77590  0.80650  0.42864  Biso   1.000  C
  H35      1.0000 0.74930  0.80320  0.43270  Biso   1.000  H
  C64      1.0000 0.81580  0.77550  0.42801  Biso   1.000  C
  H36      1.0000 0.82080  0.75240  0.43200  Biso   1.000  H
  Zn7      1.0000 0.32579  0.33284  0.74492  Biso   1.000  Zn
  Zn8      1.0000 0.35492  0.26407  0.75844  Biso   1.000  Zn
  Zn9      1.0000 0.42433  0.40634  0.75852  Biso   1.000  Zn
  Zn10     1.0000 0.45204  0.33406  0.74477  Biso   1.000  Zn
  Zn11     1.0000 0.25433  0.60212  0.82872  Biso   1.000  Zn
  Zn12     1.0000 0.60592  0.25276  0.66727  Biso   1.000  Zn
  O23      1.0000 0.38958  0.33482  0.75140  Biso   1.000  O
  O24      1.0000 0.39346  0.45923  0.75407  Biso   1.000  O
  O25      1.0000 0.27237  0.20807  0.75498  Biso   1.000  O
  O26      1.0000 0.33845  0.32363  0.73349  Biso   1.000  O
  O27      1.0000 0.24498  0.25893  0.74687  Biso   1.000  O
  O28      1.0000 0.34577  0.27773  0.76964  Biso   1.000  O
  O29      1.0000 0.31905  0.40708  0.74534  Biso   1.000  O
  O30      1.0000 0.39437  0.21693  0.75786  Biso   1.000  O
  O31      1.0000 0.46207  0.26303  0.74768  Biso   1.000  O
  O32      1.0000 0.42447  0.31853  0.73365  Biso   1.000  O
  C65      1.0000 0.34787  0.50853  0.74816  Biso   1.000  C
  O33      1.0000 0.37107  0.37493  0.76815  Biso   1.000  O
  C66      1.0000 0.35347  0.45423  0.74903  Biso   1.000  C
  O34      1.0000 0.07727  0.06453  0.68587  Biso   1.000  O
  O35      1.0000 0.06727  0.07363  0.81791  Biso   1.000  O
  O36      1.0000 0.10867  0.12253  0.67536  Biso   1.000  O
  O37      1.0000 0.12557  0.11393  0.82886  Biso   1.000  O
  O38      1.0000 0.26447  0.54383  0.82239  Biso   1.000  O
  C67      1.0000 0.23397  0.21283  0.75047  Biso   1.000  C
  C68      1.0000 0.17257  0.15773  0.74977  Biso   1.000  C
  C69      1.0000 0.38617  0.56153  0.75224  Biso   1.000  C
  H37      1.0000 0.41477  0.56253  0.75583  Biso   1.000  H
  O39      1.0000 0.36677  0.58173  0.82216  Biso   1.000  O
  C70      1.0000 0.37767  0.31523  0.73026  Biso   1.000  C
  S2       1.0000 0.51910  0.18582  0.74849  Biso   1.000  S
  C71      1.0000 0.33947  0.61473  0.74603  Biso   1.000  C
  C72      1.0000 0.05907  0.05283  0.74842  Biso   1.000  C
  C73      1.0000 0.33247  0.32913  0.78048  Biso   1.000  C
  N3       1.0000 0.34467  0.25473  0.69698  Biso   1.000  N
  C74      1.0000 0.30687  0.51083  0.74300  Biso   1.000  C
  H38      1.0000 0.28147  0.47593  0.74003  Biso   1.000  H
  C75      1.0000 0.10287  0.05363  0.75294  Biso   1.000  C
  H39      1.0000 0.09517  0.01853  0.75573  Biso   1.000  H
  C76      1.0000 0.38167  0.61413  0.75093  Biso   1.000  C
  H40      1.0000 0.40887  0.64993  0.75353  Biso   1.000  H
  C77      1.0000 0.15997  0.10573  0.75361  Biso   1.000  C
  H41      1.0000 0.18987  0.10483  0.75673  Biso   1.000  H
  N4       1.0000 0.27057  0.32843  0.80393  Biso   1.000  N
  C78      1.0000 0.29157  0.32733  0.79619  Biso   1.000  C
  C79      1.0000 0.30117  0.56223  0.74192  Biso   1.000  C
  H42      1.0000 0.27167  0.56103  0.73843  Biso   1.000  H
  C80      1.0000 0.12827  0.15733  0.74507  Biso   1.000  C
  H43      1.0000 0.13587  0.19213  0.74223  Biso   1.000  H
  C81      1.0000 0.32177  0.29713  0.71742  Biso   1.000  C
  H44      1.0000 0.29467  0.30563  0.72013  Biso   1.000  H
  C82      1.0000 0.07247  0.10523  0.74456  Biso   1.000  C
  H45      1.0000 0.04237  0.10573  0.74143  Biso   1.000  H
  C83      1.0000 0.11207  0.11453  0.82130  Biso   1.000  C
  C84      1.0000 0.31747  0.28053  0.78578  Biso   1.000  C
  H46      1.0000 0.31957  0.24673  0.78403  Biso   1.000  H
  C85      1.0000 0.37067  0.30053  0.72163  Biso   1.000  C
  C86      1.0000 0.30387  0.48993  0.81569  Biso   1.000  C
  C87      1.0000 0.28027  0.38293  0.80767  Biso   1.000  C
  C88      1.0000 0.35047  0.32563  0.77217  Biso   1.000  C
  C89      1.0000 0.31187  0.28193  0.70950  Biso   1.000  C
  H47      1.0000 0.27767  0.27783  0.70683  Biso   1.000  H
  C90      1.0000 0.17367  0.14783  0.68645  Biso   1.000  C
  C91      1.0000 0.29967  0.28163  0.79362  Biso   1.000  C
  H48      1.0000 0.29337  0.25033  0.79713  Biso   1.000  H
  C92      1.0000 0.15417  0.16813  0.81682  Biso   1.000  C
  C93      1.0000 0.14407  0.17203  0.80866  Biso   1.000  C
  H49      1.0000 0.11197  0.13913  0.80603  Biso   1.000  H
  C94      1.0000 0.39707  0.26873  0.69214  Biso   1.000  C
  C95      1.0000 0.35577  0.27273  0.70550  Biso   1.000  C
  C96      1.0000 0.11827  0.10923  0.68230  Biso   1.000  C
  C97      1.0000 0.43787  0.22493  0.75307  Biso   1.000  C
  C98      1.0000 0.54387  0.30583  0.67670  Biso   1.000  C
  C99      1.0000 0.23337  0.27353  0.80807  Biso   1.000  C
  C100     1.0000 0.18527  0.13643  0.69402  Biso   1.000  C
  H50      1.0000 0.15417  0.10403  0.69683  Biso   1.000  H
  C101     1.0000 0.30637  0.37763  0.79095  Biso   1.000  C
  H51      1.0000 0.30337  0.41083  0.79273  Biso   1.000  H
  C102     1.0000 0.32497  0.37623  0.78332  Biso   1.000  C
  H52      1.0000 0.33287  0.40833  0.77993  Biso   1.000  H
  C103     1.0000 0.23437  0.38733  0.81080  Biso   1.000  C
  H53      1.0000 0.19477  0.35473  0.81033  Biso   1.000  H
  C104     1.0000 0.24427  0.44053  0.81490  Biso   1.000  C
  H54      1.0000 0.21157  0.44263  0.81703  Biso   1.000  H
  C105     1.0000 0.44677  0.32703  0.69126  Biso   1.000  C
  H55      1.0000 0.44887  0.35913  0.69423  Biso   1.000  H
  C106     1.0000 0.33737  0.43143  0.80826  Biso   1.000  C
  H56      1.0000 0.37027  0.43003  0.80603  Biso   1.000  H
  C107     1.0000 0.44597  0.23313  0.68321  Biso   1.000  C
  H57      1.0000 0.44637  0.20143  0.68043  Biso   1.000  H
  C108     1.0000 0.23957  0.16993  0.69761  Biso   1.000  C
  H58      1.0000 0.24567  0.15983  0.70273  Biso   1.000  H
  C109     1.0000 0.39747  0.22003  0.68826  Biso   1.000  C
  H59      1.0000 0.36607  0.18013  0.68903  Biso   1.000  H
  C110     1.0000 0.28447  0.21723  0.69388  Biso   1.000  C
  C111     1.0000 0.31447  0.54153  0.82013  Biso   1.000  C
  C112     1.0000 0.41187  0.29063  0.71747  Biso   1.000  C
  H60      1.0000 0.44397  0.29123  0.72023  Biso   1.000  H
  C113     1.0000 0.21847  0.19623  0.68262  Biso   1.000  C
  H61      1.0000 0.21087  0.20573  0.67753  Biso   1.000  H
  C114     1.0000 0.49177  0.33723  0.68620  Biso   1.000  C
  H62      1.0000 0.52327  0.37703  0.68533  Biso   1.000  H
  C115     1.0000 0.24537  0.26853  0.81595  Biso   1.000  C
  H63      1.0000 0.27877  0.30093  0.81843  Biso   1.000  H
  C116     1.0000 0.40747  0.28023  0.70952  Biso   1.000  C
  H64      1.0000 0.43817  0.27803  0.70673  Biso   1.000  H
  C117     1.0000 0.27607  0.23293  0.68605  Biso   1.000  C
  H65      1.0000 0.30717  0.26583  0.68333  Biso   1.000  H
  C118     1.0000 0.34637  0.48313  0.81224  Biso   1.000  C
  H66      1.0000 0.38607  0.51593  0.81253  Biso   1.000  H
  C119     1.0000 0.56367  0.10513  0.75117  Biso   1.000  C
  C120     1.0000 0.18137  0.22413  0.80450  Biso   1.000  C
  H67      1.0000 0.17237  0.22713  0.79913  Biso   1.000  H
  C121     1.0000 0.20627  0.21303  0.82047  Biso   1.000  C
  H68      1.0000 0.21617  0.20813  0.82563  Biso   1.000  H
  O40      1.0000 0.55137  0.05833  0.75792  Biso   1.000  O
  C122     1.0000 0.46007  0.09243  0.75628  Biso   1.000  C
  H69      1.0000 0.44537  0.05263  0.75803  Biso   1.000  H
  C123     1.0000 0.42777  0.12393  0.75736  Biso   1.000  C
  H70      1.0000 0.39097  0.10893  0.76003  Biso   1.000  H
  C124     1.0000 0.45857  0.17893  0.75384  Biso   1.000  C
  C125     1.0000 0.51377  0.12423  0.75247  Biso   1.000  C
  O41      1.0000 0.54757  0.25953  0.67423  Biso   1.000  O
  O42      1.0000 0.58097  0.36103  0.67460  Biso   1.000  O
  C126     1.0000 0.49297  0.29093  0.68222  Biso   1.000  C
  O43      1.0000 0.60067  0.13523  0.74618  Biso   1.000  O
  O44      1.0000 0.50557  0.45803  0.75179  Biso   1.000  O
  C127     1.0000 0.44257  0.13983  0.76197  Biso   1.000  C
  H71      1.0000 0.41597  0.13653  0.76603  Biso   1.000  H
  C128     1.0000 0.48247  0.10883  0.76134  Biso   1.000  C
  H72      1.0000 0.48747  0.08573  0.76533  Biso   1.000  H
  Zn13     1.0000 0.99245  0.66618  0.07826  Biso   1.000  Zn
  Zn14     1.0000 0.02158  0.59741  0.09177  Biso   1.000  Zn
  Zn15     1.0000 0.09099  0.73968  0.09185  Biso   1.000  Zn
  Zn16     1.0000 0.11870  0.66740  0.07810  Biso   1.000  Zn
  Zn17     1.0000 0.92099  0.93546  0.16205  Biso   1.000  Zn
  Zn18     1.0000 0.27258  0.58610  0.00060  Biso   1.000  Zn
  O45      1.0000 0.05624  0.66816  0.08473  Biso   1.000  O
  O46      1.0000 0.06012  0.79257  0.08741  Biso   1.000  O
  O47      1.0000 0.93903  0.54141  0.08832  Biso   1.000  O
  O48      1.0000 0.00511  0.65697  0.06683  Biso   1.000  O
  O49      1.0000 0.91164  0.59227  0.08021  Biso   1.000  O
  O50      1.0000 0.01243  0.61107  0.10298  Biso   1.000  O
  O51      1.0000 0.98571  0.74042  0.07868  Biso   1.000  O
  O52      1.0000 0.06103  0.55027  0.09120  Biso   1.000  O
  O53      1.0000 0.12873  0.59637  0.08102  Biso   1.000  O
  O54      1.0000 0.09113  0.65187  0.06699  Biso   1.000  O
  C129     1.0000 0.01453  0.84187  0.08150  Biso   1.000  C
  O55      1.0000 0.03773  0.70827  0.10149  Biso   1.000  O
  C130     1.0000 0.02013  0.78757  0.08237  Biso   1.000  C
  O56      1.0000 0.74393  0.39787  0.01921  Biso   1.000  O
  O57      1.0000 0.73393  0.40697  0.15125  Biso   1.000  O
  O58      1.0000 0.77533  0.45587  0.00870  Biso   1.000  O
  O59      1.0000 0.79223  0.44727  0.16220  Biso   1.000  O
  O60      1.0000 0.93113  0.87717  0.15573  Biso   1.000  O
  C131     1.0000 0.90063  0.54617  0.08381  Biso   1.000  C
  C132     1.0000 0.83923  0.49107  0.08311  Biso   1.000  C
  C133     1.0000 0.05283  0.89487  0.08558  Biso   1.000  C
  H73      1.0000 0.08143  0.89587  0.08917  Biso   1.000  H
  O61      1.0000 0.03343  0.91507  0.15550  Biso   1.000  O
  C134     1.0000 0.04433  0.64857  0.06360  Biso   1.000  C
  S3       1.0000 0.18576  0.51916  0.08182  Biso   1.000  S
  C135     1.0000 0.00613  0.94807  0.07937  Biso   1.000  C
  C136     1.0000 0.72573  0.38617  0.08176  Biso   1.000  C
  C137     1.0000 0.99913  0.66247  0.11382  Biso   1.000  C
  N5       1.0000 0.01133  0.58807  0.03032  Biso   1.000  N
  C138     1.0000 0.97353  0.84417  0.07634  Biso   1.000  C
  H74      1.0000 0.94813  0.80927  0.07337  Biso   1.000  H
  C139     1.0000 0.76953  0.38697  0.08628  Biso   1.000  C
  H75      1.0000 0.76183  0.35187  0.08907  Biso   1.000  H
  C140     1.0000 0.04833  0.94747  0.08427  Biso   1.000  C
  H76      1.0000 0.07553  0.98327  0.08687  Biso   1.000  H
  C141     1.0000 0.82663  0.43907  0.08695  Biso   1.000  C
  H77      1.0000 0.85653  0.43817  0.09007  Biso   1.000  H
  N6       1.0000 0.93723  0.66177  0.13727  Biso   1.000  N
  C142     1.0000 0.95823  0.66067  0.12953  Biso   1.000  C
  C143     1.0000 0.96783  0.89557  0.07526  Biso   1.000  C
  H78      1.0000 0.93833  0.89437  0.07177  Biso   1.000  H
  C144     1.0000 0.79493  0.49067  0.07841  Biso   1.000  C
  H79      1.0000 0.80253  0.52547  0.07557  Biso   1.000  H
  C145     1.0000 0.98843  0.63047  0.05076  Biso   1.000  C
  H80      1.0000 0.96133  0.63897  0.05347  Biso   1.000  H
  C146     1.0000 0.73913  0.43857  0.07790  Biso   1.000  C
  H81      1.0000 0.70903  0.43907  0.07477  Biso   1.000  H
  C147     1.0000 0.77873  0.44787  0.15464  Biso   1.000  C
  C148     1.0000 0.98413  0.61387  0.11912  Biso   1.000  C
  H82      1.0000 0.98623  0.58007  0.11737  Biso   1.000  H
  C149     1.0000 0.03733  0.63387  0.05497  Biso   1.000  C
  C150     1.0000 0.97053  0.82327  0.14903  Biso   1.000  C
  C151     1.0000 0.94693  0.71627  0.14101  Biso   1.000  C
  C152     1.0000 0.01713  0.65897  0.10551  Biso   1.000  C
  C153     1.0000 0.97853  0.61527  0.04284  Biso   1.000  C
  H83      1.0000 0.94433  0.61117  0.04017  Biso   1.000  H
  C154     1.0000 0.84033  0.48117  0.01979  Biso   1.000  C
  C155     1.0000 0.96633  0.61497  0.12696  Biso   1.000  C
  H84      1.0000 0.96003  0.58367  0.13047  Biso   1.000  H
  C156     1.0000 0.82083  0.50147  0.15016  Biso   1.000  C
  C157     1.0000 0.81073  0.50537  0.14200  Biso   1.000  C
  H85      1.0000 0.77863  0.47247  0.13937  Biso   1.000  H
  C158     1.0000 0.06373  0.60207  0.02548  Biso   1.000  C
  C159     1.0000 0.02243  0.60607  0.03884  Biso   1.000  C
  C160     1.0000 0.78493  0.44257  0.01564  Biso   1.000  C
  C161     1.0000 0.10453  0.55827  0.08641  Biso   1.000  C
  C162     1.0000 0.21053  0.63917  0.01004  Biso   1.000  C
  C163     1.0000 0.90003  0.60687  0.14141  Biso   1.000  C
  C164     1.0000 0.85193  0.46977  0.02736  Biso   1.000  C
  H86      1.0000 0.82083  0.43737  0.03017  Biso   1.000  H
  C165     1.0000 0.97303  0.71097  0.12429  Biso   1.000  C
  H87      1.0000 0.97003  0.74417  0.12607  Biso   1.000  H
  C166     1.0000 0.99163  0.70957  0.11666  Biso   1.000  C
  H88      1.0000 0.99953  0.74167  0.11327  Biso   1.000  H
  C167     1.0000 0.90103  0.72067  0.14414  Biso   1.000  C
  H89      1.0000 0.86143  0.68807  0.14367  Biso   1.000  H
  C168     1.0000 0.91093  0.77387  0.14824  Biso   1.000  C
  H90      1.0000 0.87823  0.77597  0.15037  Biso   1.000  H
  C169     1.0000 0.11343  0.66037  0.02460  Biso   1.000  C
  H91      1.0000 0.11553  0.69247  0.02757  Biso   1.000  H
  C170     1.0000 0.00403  0.76477  0.14160  Biso   1.000  C
  H92      1.0000 0.03693  0.76337  0.13937  Biso   1.000  H
  C171     1.0000 0.11263  0.56647  0.01655  Biso   1.000  C
  H93      1.0000 0.11303  0.53477  0.01377  Biso   1.000  H
  C172     1.0000 0.90623  0.50327  0.03095  Biso   1.000  C
  H94      1.0000 0.91233  0.49317  0.03607  Biso   1.000  H
  C173     1.0000 0.06413  0.55337  0.02160  Biso   1.000  C
  H95      1.0000 0.03273  0.51347  0.02237  Biso   1.000  H
  C174     1.0000 0.95113  0.55057  0.02722  Biso   1.000  C
  C175     1.0000 0.98113  0.87487  0.15347  Biso   1.000  C
  C176     1.0000 0.07853  0.62397  0.05081  Biso   1.000  C
  H96      1.0000 0.11063  0.62457  0.05357  Biso   1.000  H
  C177     1.0000 0.88513  0.52957  0.01596  Biso   1.000  C
  H97      1.0000 0.87753  0.53907  0.01087  Biso   1.000  H
  C178     1.0000 0.15843  0.67057  0.01954  Biso   1.000  C
  H98      1.0000 0.18993  0.71037  0.01867  Biso   1.000  H
  C179     1.0000 0.91203  0.60187  0.14929  Biso   1.000  C
  H99      1.0000 0.94543  0.63427  0.15177  Biso   1.000  H
  C180     1.0000 0.07413  0.61357  0.04286  Biso   1.000  C
  H100     1.0000 0.10483  0.61137  0.04007  Biso   1.000  H
  C181     1.0000 0.94273  0.56627  0.01939  Biso   1.000  C
  H101     1.0000 0.97383  0.59917  0.01667  Biso   1.000  H
  C182     1.0000 0.01303  0.81647  0.14558  Biso   1.000  C
  H102     1.0000 0.05273  0.84927  0.14587  Biso   1.000  H
  C183     1.0000 0.23033  0.43847  0.08451  Biso   1.000  C
  C184     1.0000 0.84803  0.55747  0.13784  Biso   1.000  C
  H103     1.0000 0.83903  0.56047  0.13247  Biso   1.000  H
  C185     1.0000 0.87293  0.54637  0.15381  Biso   1.000  C
  H104     1.0000 0.88283  0.54147  0.15897  Biso   1.000  H
  O62      1.0000 0.21803  0.39167  0.09126  Biso   1.000  O
  C186     1.0000 0.12673  0.42577  0.08962  Biso   1.000  C
  H105     1.0000 0.11203  0.38597  0.09137  Biso   1.000  H
  C187     1.0000 0.09443  0.45727  0.09070  Biso   1.000  C
  H106     1.0000 0.05763  0.44227  0.09337  Biso   1.000  H
  C188     1.0000 0.12523  0.51227  0.08718  Biso   1.000  C
  C189     1.0000 0.18043  0.45757  0.08581  Biso   1.000  C
  O63      1.0000 0.21423  0.59287  0.00757  Biso   1.000  O
  O64      1.0000 0.24763  0.69437  0.00794  Biso   1.000  O
  C190     1.0000 0.15963  0.62427  0.01556  Biso   1.000  C
  O65      1.0000 0.26733  0.46857  0.07952  Biso   1.000  O
  O66      1.0000 0.17223  0.79137  0.08513  Biso   1.000  O
  C191     1.0000 0.10923  0.47317  0.09531  Biso   1.000  C
  H107     1.0000 0.08263  0.46987  0.09937  Biso   1.000  H
  C192     1.0000 0.14913  0.44217  0.09468  Biso   1.000  C
  H108     1.0000 0.15413  0.41907  0.09867  Biso   1.000  H
  Zn19     1.0000 0.00049  0.65961  0.41159  Biso   1.000  Zn
  Zn20     1.0000 0.06926  0.75751  0.42511  Biso   1.000  Zn
  Zn21     1.0000 0.92699  0.68465  0.42518  Biso   1.000  Zn
  Zn22     1.0000 0.99927  0.78464  0.41143  Biso   1.000  Zn
  Zn23     1.0000 0.73121  0.31887  0.49539  Biso   1.000  Zn
  Zn24     1.0000 0.08057  0.01982  0.33393  Biso   1.000  Zn
  O67      1.0000 0.99851  0.72142  0.41806  Biso   1.000  O
  O68      1.0000 0.87410  0.60089  0.42074  Biso   1.000  O
  O69      1.0000 0.12526  0.73096  0.42165  Biso   1.000  O
  O70      1.0000 0.00970  0.68148  0.40016  Biso   1.000  O
  O71      1.0000 0.07440  0.65271  0.41354  Biso   1.000  O
  O72      1.0000 0.05560  0.73470  0.43631  Biso   1.000  O
  O73      1.0000 0.92625  0.57863  0.41201  Biso   1.000  O
  O74      1.0000 0.11640  0.84410  0.42453  Biso   1.000  O
  O75      1.0000 0.07030  0.86570  0.41435  Biso   1.000  O
  O76      1.0000 0.01480  0.77260  0.40032  Biso   1.000  O
  C193     1.0000 0.82480  0.50600  0.41483  Biso   1.000  C
  O77      1.0000 0.95840  0.66280  0.43482  Biso   1.000  O
  C194     1.0000 0.87910  0.56590  0.41570  Biso   1.000  C
  O78      1.0000 0.26880  0.67940  0.35254  Biso   1.000  O
  O79      1.0000 0.25970  0.66030  0.48458  Biso   1.000  O
  O80      1.0000 0.21080  0.65280  0.34203  Biso   1.000  O
  O81      1.0000 0.21940  0.67830  0.49553  Biso   1.000  O
  O82      1.0000 0.78950  0.38730  0.48906  Biso   1.000  O
  C195     1.0000 0.12050  0.68780  0.41714  Biso   1.000  C
  C196     1.0000 0.17560  0.68150  0.41644  Biso   1.000  C
  C197     1.0000 0.77180  0.49130  0.41891  Biso   1.000  C
  H109     1.0000 0.77080  0.51890  0.42250  Biso   1.000  H
  O83      1.0000 0.75160  0.45170  0.48883  Biso   1.000  O
  C198     1.0000 0.01810  0.72910  0.39693  Biso   1.000  C
  S4       1.0000 0.14751  0.99994  0.41516  Biso   1.000  S
  C199     1.0000 0.71860  0.39140  0.41270  Biso   1.000  C
  C200     1.0000 0.28050  0.67290  0.41509  Biso   1.000  C
  C201     1.0000 0.00420  0.67000  0.44715  Biso   1.000  C
  N7       1.0000 0.07860  0.75660  0.36365  Biso   1.000  N
  C202     1.0000 0.82250  0.46270  0.40967  Biso   1.000  C
  H110     1.0000 0.85740  0.47220  0.40670  Biso   1.000  H
  C203     1.0000 0.27970  0.71590  0.41961  Biso   1.000  C
  H111     1.0000 0.31480  0.74330  0.42240  Biso   1.000  H
  C204     1.0000 0.71920  0.43420  0.41760  Biso   1.000  C
  H112     1.0000 0.68340  0.42560  0.42020  Biso   1.000  H
  C205     1.0000 0.22760  0.72090  0.42028  Biso   1.000  C
  H113     1.0000 0.22850  0.75170  0.42340  Biso   1.000  H
  N8       1.0000 0.00490  0.60880  0.47060  Biso   1.000  N
  C206     1.0000 0.00600  0.63090  0.46286  Biso   1.000  C
  C207     1.0000 0.77110  0.40560  0.40859  Biso   1.000  C
  H114     1.0000 0.77230  0.37730  0.40510  Biso   1.000  H
  C208     1.0000 0.17600  0.63760  0.41174  Biso   1.000  C
  H115     1.0000 0.14120  0.61040  0.40890  Biso   1.000  H
  C209     1.0000 0.03620  0.69130  0.38409  Biso   1.000  C
  H116     1.0000 0.02770  0.65570  0.38680  Biso   1.000  H
  C210     1.0000 0.22810  0.63390  0.41123  Biso   1.000  C
  H117     1.0000 0.22760  0.60330  0.40810  Biso   1.000  H
  C211     1.0000 0.21880  0.66420  0.48797  Biso   1.000  C
  C212     1.0000 0.05280  0.70360  0.45245  Biso   1.000  C
  H118     1.0000 0.08660  0.73950  0.45070  Biso   1.000  H
  C213     1.0000 0.03280  0.73680  0.38830  Biso   1.000  C
  C214     1.0000 0.84340  0.48060  0.48236  Biso   1.000  C
  C215     1.0000 0.95040  0.56400  0.47434  Biso   1.000  C
  C216     1.0000 0.00770  0.69150  0.43884  Biso   1.000  C
  C217     1.0000 0.05140  0.69660  0.37617  Biso   1.000  C
  H119     1.0000 0.05550  0.66650  0.37350  Biso   1.000  H
  C218     1.0000 0.18550  0.69250  0.35312  Biso   1.000  C
  C219     1.0000 0.05170  0.68470  0.46029  Biso   1.000  C
  H120     1.0000 0.08300  0.70970  0.46380  Biso   1.000  H
  C220     1.0000 0.16520  0.65270  0.48349  Biso   1.000  C
  C221     1.0000 0.16130  0.63870  0.47533  Biso   1.000  C
  H121     1.0000 0.19420  0.63950  0.47270  Biso   1.000  H
  C222     1.0000 0.06460  0.79500  0.35881  Biso   1.000  C
  C223     1.0000 0.06060  0.74970  0.37217  Biso   1.000  C
  C224     1.0000 0.22410  0.67570  0.34897  Biso   1.000  C
  C225     1.0000 0.10840  0.87960  0.41974  Biso   1.000  C
  C226     1.0000 0.02750  0.90470  0.34337  Biso   1.000  C
  C227     1.0000 0.05980  0.62650  0.47474  Biso   1.000  C
  C228     1.0000 0.19690  0.71550  0.36069  Biso   1.000  C
  H122     1.0000 0.22930  0.71680  0.36350  Biso   1.000  H
  C229     1.0000 0.95570  0.59540  0.45762  Biso   1.000  C
  H123     1.0000 0.92250  0.55920  0.45940  Biso   1.000  H
  C230     1.0000 0.95710  0.61540  0.44999  Biso   1.000  C
  H124     1.0000 0.92500  0.59120  0.44660  Biso   1.000  H
  C231     1.0000 0.94600  0.51370  0.47747  Biso   1.000  C
  H125     1.0000 0.97860  0.50670  0.47700  Biso   1.000  H
  C232     1.0000 0.89280  0.47040  0.48157  Biso   1.000  C
  H126     1.0000 0.89070  0.43560  0.48370  Biso   1.000  H
  C233     1.0000 0.00630  0.78640  0.35793  Biso   1.000  C
  H127     1.0000 0.97420  0.75640  0.36090  Biso   1.000  H
  C234     1.0000 0.90190  0.57260  0.47493  Biso   1.000  C
  H128     1.0000 0.90330  0.60690  0.47270  Biso   1.000  H
  C235     1.0000 0.10020  0.87950  0.34988  Biso   1.000  C
  H129     1.0000 0.13190  0.91160  0.34710  Biso   1.000  H
  C236     1.0000 0.16340  0.73630  0.36428  Biso   1.000  C
  H130     1.0000 0.17350  0.75250  0.36940  Biso   1.000  H
  C237     1.0000 0.11330  0.84410  0.35493  Biso   1.000  C
  H131     1.0000 0.15320  0.85260  0.35570  Biso   1.000  H
  C238     1.0000 0.11610  0.73390  0.36055  Biso   1.000  C
  C239     1.0000 0.79180  0.43960  0.48680  Biso   1.000  C
  C240     1.0000 0.04270  0.78790  0.38414  Biso   1.000  C
  H132     1.0000 0.04210  0.81940  0.38690  Biso   1.000  H
  C241     1.0000 0.13710  0.68890  0.34929  Biso   1.000  C
  H133     1.0000 0.12760  0.67180  0.34420  Biso   1.000  H
  C242     1.0000 0.99610  0.82120  0.35287  Biso   1.000  C
  H134     1.0000 0.95630  0.81290  0.35200  Biso   1.000  H
  C243     1.0000 0.06480  0.64350  0.48262  Biso   1.000  C
  H135     1.0000 0.03240  0.64450  0.48510  Biso   1.000  H
  C244     1.0000 0.05310  0.79390  0.37619  Biso   1.000  C
  H136     1.0000 0.05530  0.82680  0.37340  Biso   1.000  H
  C245     1.0000 0.10040  0.70980  0.35272  Biso   1.000  C
  H137     1.0000 0.06750  0.70800  0.35000  Biso   1.000  H
  C246     1.0000 0.85020  0.52990  0.47891  Biso   1.000  C
  H138     1.0000 0.81740  0.53680  0.47920  Biso   1.000  H
  C247     1.0000 0.22820  0.12520  0.41784  Biso   1.000  C
  C248     1.0000 0.10920  0.62390  0.47117  Biso   1.000  C
  H139     1.0000 0.10620  0.61190  0.46580  Biso   1.000  H
  C249     1.0000 0.12030  0.65990  0.48714  Biso   1.000  C
  H140     1.0000 0.12520  0.67470  0.49230  Biso   1.000  H
  O84      1.0000 0.27500  0.15970  0.42459  Biso   1.000  O
  C250     1.0000 0.24090  0.03430  0.42295  Biso   1.000  C
  H141     1.0000 0.28070  0.05940  0.42470  Biso   1.000  H
  C251     1.0000 0.20940  0.97050  0.42403  Biso   1.000  C
  H142     1.0000 0.22440  0.94870  0.42670  Biso   1.000  H
  C252     1.0000 0.15440  0.94630  0.42051  Biso   1.000  C
  C253     1.0000 0.20910  0.05620  0.41914  Biso   1.000  C
  O85      1.0000 0.07380  0.95470  0.34090  Biso   1.000  O
  O86      1.0000 0.97230  0.88660  0.34127  Biso   1.000  O
  C254     1.0000 0.04240  0.86870  0.34889  Biso   1.000  C
  O87      1.0000 0.19810  0.13210  0.41285  Biso   1.000  O
  O88      1.0000 0.87530  0.71420  0.41846  Biso   1.000  O
  C255     1.0000 0.19350  0.96940  0.42864  Biso   1.000  C
  H143     1.0000 0.19680  0.94610  0.43270  Biso   1.000  H
  C256     1.0000 0.22450  0.04030  0.42801  Biso   1.000  C
  H144     1.0000 0.24760  0.06840  0.43200  Biso   1.000  H
  Zn25     1.0000 0.66716  0.99294  0.74492  Biso   1.000  Zn
  Zn26     1.0000 0.73593  0.09084  0.75844  Biso   1.000  Zn
  Zn27     1.0000 0.59366  0.01798  0.75852  Biso   1.000  Zn
  Zn28     1.0000 0.66594  0.11797  0.74477  Biso   1.000  Zn
  Zn29     1.0000 0.39788  0.65220  0.82872  Biso   1.000  Zn
  Zn30     1.0000 0.74724  0.35315  0.66727  Biso   1.000  Zn
  O89      1.0000 0.66518  0.05475  0.75140  Biso   1.000  O
  O90      1.0000 0.54077  0.93422  0.75407  Biso   1.000  O
  O91      1.0000 0.79193  0.06429  0.75498  Biso   1.000  O
  O92      1.0000 0.67637  0.01481  0.73349  Biso   1.000  O
  O93      1.0000 0.74107  0.98604  0.74687  Biso   1.000  O
  O94      1.0000 0.72227  0.06803  0.76964  Biso   1.000  O
  O95      1.0000 0.59292  0.91196  0.74534  Biso   1.000  O
  O96      1.0000 0.78307  0.17743  0.75786  Biso   1.000  O
  O97      1.0000 0.73697  0.19903  0.74768  Biso   1.000  O
  O98      1.0000 0.68147  0.10593  0.73365  Biso   1.000  O
  C257     1.0000 0.49147  0.83933  0.74816  Biso   1.000  C
  O99      1.0000 0.62507  0.99613  0.76815  Biso   1.000  O
  C258     1.0000 0.54577  0.89923  0.74903  Biso   1.000  C
  O100     1.0000 0.93547  0.01273  0.68587  Biso   1.000  O
  O101     1.0000 0.92637  0.99363  0.81791  Biso   1.000  O
  O102     1.0000 0.87747  0.98613  0.67536  Biso   1.000  O
  O103     1.0000 0.88607  0.01163  0.82886  Biso   1.000  O
  O104     1.0000 0.45617  0.72063  0.82239  Biso   1.000  O
  C259     1.0000 0.78717  0.02113  0.75047  Biso   1.000  C
  C260     1.0000 0.84227  0.01483  0.74977  Biso   1.000  C
  C261     1.0000 0.43847  0.82463  0.75224  Biso   1.000  C
  H145     1.0000 0.43747  0.85223  0.75583  Biso   1.000  H
  O105     1.0000 0.41827  0.78503  0.82216  Biso   1.000  O
  C262     1.0000 0.68477  0.06243  0.73026  Biso   1.000  C
  S5       1.0000 0.81418  0.33327  0.74849  Biso   1.000  S
  C263     1.0000 0.38527  0.72473  0.74603  Biso   1.000  C
  C264     1.0000 0.94717  0.00623  0.74842  Biso   1.000  C
  C265     1.0000 0.67087  0.00333  0.78048  Biso   1.000  C
  N9       1.0000 0.74527  0.08993  0.69698  Biso   1.000  N
  C266     1.0000 0.48917  0.79603  0.74300  Biso   1.000  C
  H146     1.0000 0.52407  0.80553  0.74003  Biso   1.000  H
  C267     1.0000 0.94637  0.04923  0.75294  Biso   1.000  C
  H147     1.0000 0.98147  0.07663  0.75573  Biso   1.000  H
  C268     1.0000 0.38587  0.76753  0.75093  Biso   1.000  C
  H148     1.0000 0.35007  0.75893  0.75353  Biso   1.000  H
  C269     1.0000 0.89427  0.05423  0.75361  Biso   1.000  C
  H149     1.0000 0.89517  0.08503  0.75673  Biso   1.000  H
  N10      1.0000 0.67157  0.94213  0.80393  Biso   1.000  N
  C270     1.0000 0.67267  0.96423  0.79619  Biso   1.000  C
  C271     1.0000 0.43777  0.73893  0.74192  Biso   1.000  C
  H150     1.0000 0.43897  0.71063  0.73843  Biso   1.000  H
  C272     1.0000 0.84267  0.97093  0.74507  Biso   1.000  C
  H151     1.0000 0.80787  0.94373  0.74223  Biso   1.000  H
  C273     1.0000 0.70287  0.02463  0.71742  Biso   1.000  C
  H152     1.0000 0.69437  0.98903  0.72013  Biso   1.000  H
  C274     1.0000 0.89477  0.96723  0.74456  Biso   1.000  C
  H153     1.0000 0.89427  0.93663  0.74143  Biso   1.000  H
  C275     1.0000 0.88547  0.99753  0.82130  Biso   1.000  C
  C276     1.0000 0.71947  0.03693  0.78578  Biso   1.000  C
  H154     1.0000 0.75327  0.07283  0.78403  Biso   1.000  H
  C277     1.0000 0.69947  0.07013  0.72163  Biso   1.000  C
  C278     1.0000 0.51007  0.81393  0.81569  Biso   1.000  C
  C279     1.0000 0.61707  0.89733  0.80767  Biso   1.000  C
  C280     1.0000 0.67437  0.02483  0.77217  Biso   1.000  C
  C281     1.0000 0.71807  0.02993  0.70950  Biso   1.000  C
  H155     1.0000 0.72217  0.99983  0.70683  Biso   1.000  H
  C282     1.0000 0.85217  0.02583  0.68645  Biso   1.000  C
  C283     1.0000 0.71837  0.01803  0.79362  Biso   1.000  C
  H156     1.0000 0.74967  0.04303  0.79713  Biso   1.000  H
  C284     1.0000 0.83187  0.98603  0.81682  Biso   1.000  C
  C285     1.0000 0.82797  0.97203  0.80866  Biso   1.000  C
  H157     1.0000 0.86087  0.97283  0.80603  Biso   1.000  H
  C286     1.0000 0.73127  0.12833  0.69214  Biso   1.000  C
  C287     1.0000 0.72727  0.08303  0.70550  Biso   1.000  C
  C288     1.0000 0.89077  0.00903  0.68230  Biso   1.000  C
  C289     1.0000 0.77507  0.21293  0.75307  Biso   1.000  C
  C290     1.0000 0.69417  0.23803  0.67670  Biso   1.000  C
  C291     1.0000 0.72647  0.95983  0.80807  Biso   1.000  C
  C292     1.0000 0.86357  0.04883  0.69402  Biso   1.000  C
  H158     1.0000 0.89597  0.05013  0.69683  Biso   1.000  H
  C293     1.0000 0.62237  0.92873  0.79095  Biso   1.000  C
  H159     1.0000 0.58917  0.89253  0.79273  Biso   1.000  H
  C294     1.0000 0.62377  0.94873  0.78332  Biso   1.000  C
  H160     1.0000 0.59167  0.92453  0.77993  Biso   1.000  H
  C295     1.0000 0.61267  0.84703  0.81080  Biso   1.000  C
  H161     1.0000 0.64527  0.84003  0.81033  Biso   1.000  H
  C296     1.0000 0.55947  0.80373  0.81490  Biso   1.000  C
  H162     1.0000 0.55737  0.76893  0.81703  Biso   1.000  H
  C297     1.0000 0.67297  0.11973  0.69126  Biso   1.000  C
  H163     1.0000 0.64087  0.08973  0.69423  Biso   1.000  H
  C298     1.0000 0.56857  0.90593  0.80826  Biso   1.000  C
  H164     1.0000 0.56997  0.94023  0.80603  Biso   1.000  H
  C299     1.0000 0.76687  0.21283  0.68321  Biso   1.000  C
  H165     1.0000 0.79857  0.24493  0.68043  Biso   1.000  H
  C300     1.0000 0.83007  0.06963  0.69761  Biso   1.000  C
  H166     1.0000 0.84017  0.08583  0.70273  Biso   1.000  H
  C301     1.0000 0.77997  0.17743  0.68826  Biso   1.000  C
  H167     1.0000 0.81987  0.18593  0.68903  Biso   1.000  H
  C302     1.0000 0.78277  0.06723  0.69388  Biso   1.000  C
  C303     1.0000 0.45847  0.77293  0.82013  Biso   1.000  C
  C304     1.0000 0.70937  0.12123  0.71747  Biso   1.000  C
  H168     1.0000 0.70877  0.15273  0.72023  Biso   1.000  H
  C305     1.0000 0.80377  0.02223  0.68262  Biso   1.000  C
  H169     1.0000 0.79427  0.00513  0.67753  Biso   1.000  H
  C306     1.0000 0.66277  0.15453  0.68620  Biso   1.000  C
  H170     1.0000 0.62297  0.14623  0.68533  Biso   1.000  H
  C307     1.0000 0.73147  0.97683  0.81595  Biso   1.000  C
  H171     1.0000 0.69907  0.97783  0.81843  Biso   1.000  H
  C308     1.0000 0.71977  0.12723  0.70952  Biso   1.000  C
  H172     1.0000 0.72197  0.16013  0.70673  Biso   1.000  H
  C309     1.0000 0.76707  0.04313  0.68605  Biso   1.000  C
  H173     1.0000 0.73417  0.04133  0.68333  Biso   1.000  H
  C310     1.0000 0.51687  0.86323  0.81224  Biso   1.000  C
  H174     1.0000 0.48407  0.87013  0.81253  Biso   1.000  H
  C311     1.0000 0.89487  0.45853  0.75117  Biso   1.000  C
  C312     1.0000 0.77587  0.95723  0.80450  Biso   1.000  C
  H175     1.0000 0.77287  0.94523  0.79913  Biso   1.000  H
  C313     1.0000 0.78697  0.99323  0.82047  Biso   1.000  C
  H176     1.0000 0.79187  0.00803  0.82563  Biso   1.000  H
  O106     1.0000 0.94167  0.49303  0.75792  Biso   1.000  O
  C314     1.0000 0.90757  0.36763  0.75628  Biso   1.000  C
  H177     1.0000 0.94737  0.39273  0.75803  Biso   1.000  H
  C315     1.0000 0.87607  0.30383  0.75736  Biso   1.000  C
  H178     1.0000 0.89107  0.28203  0.76003  Biso   1.000  H
  C316     1.0000 0.82107  0.27963  0.75384  Biso   1.000  C
  C317     1.0000 0.87577  0.38953  0.75247  Biso   1.000  C
  O107     1.0000 0.74047  0.28803  0.67423  Biso   1.000  O
  O108     1.0000 0.63897  0.21993  0.67460  Biso   1.000  O
  C318     1.0000 0.70907  0.20203  0.68222  Biso   1.000  C
  O109     1.0000 0.86477  0.46543  0.74618  Biso   1.000  O
  O110     1.0000 0.54197  0.04753  0.75179  Biso   1.000  O
  C319     1.0000 0.86017  0.30273  0.76197  Biso   1.000  C
  H179     1.0000 0.86347  0.27943  0.76603  Biso   1.000  H
  C320     1.0000 0.89117  0.37363  0.76134  Biso   1.000  C
  H180     1.0000 0.91427  0.40173  0.76533  Biso   1.000  H
  Zn31     1.0000 0.33382  0.32628  0.07826  Biso   1.000  Zn
  Zn32     1.0000 0.40259  0.42418  0.09177  Biso   1.000  Zn
  Zn33     1.0000 0.26032  0.35132  0.09185  Biso   1.000  Zn
  Zn34     1.0000 0.33260  0.45131  0.07810  Biso   1.000  Zn
  Zn35     1.0000 0.06454  0.98554  0.16205  Biso   1.000  Zn
  Zn36     1.0000 0.41390  0.68649  0.00060  Biso   1.000  Zn
  O111     1.0000 0.33184  0.38809  0.08473  Biso   1.000  O
  O112     1.0000 0.20743  0.26756  0.08741  Biso   1.000  O
  O113     1.0000 0.45859  0.39763  0.08832  Biso   1.000  O
  O114     1.0000 0.34303  0.34815  0.06683  Biso   1.000  O
  O115     1.0000 0.40773  0.31938  0.08021  Biso   1.000  O
  O116     1.0000 0.38893  0.40137  0.10298  Biso   1.000  O
  O117     1.0000 0.25958  0.24530  0.07868  Biso   1.000  O
  O118     1.0000 0.44973  0.51077  0.09120  Biso   1.000  O
  O119     1.0000 0.40363  0.53237  0.08102  Biso   1.000  O
  O120     1.0000 0.34813  0.43927  0.06699  Biso   1.000  O
  C321     1.0000 0.15813  0.17267  0.08150  Biso   1.000  C
  O121     1.0000 0.29173  0.32947  0.10149  Biso   1.000  O
  C322     1.0000 0.21243  0.23257  0.08237  Biso   1.000  C
  O122     1.0000 0.60213  0.34607  0.01921  Biso   1.000  O
  O123     1.0000 0.59303  0.32697  0.15125  Biso   1.000  O
  O124     1.0000 0.54413  0.31947  0.00870  Biso   1.000  O
  O125     1.0000 0.55273  0.34497  0.16220  Biso   1.000  O
  O126     1.0000 0.12283  0.05397  0.15573  Biso   1.000  O
  C323     1.0000 0.45383  0.35447  0.08381  Biso   1.000  C
  C324     1.0000 0.50893  0.34817  0.08311  Biso   1.000  C
  C325     1.0000 0.10513  0.15797  0.08558  Biso   1.000  C
  H181     1.0000 0.10413  0.18557  0.08917  Biso   1.000  H
  O127     1.0000 0.08493  0.11837  0.15550  Biso   1.000  O
  C326     1.0000 0.35143  0.39577  0.06360  Biso   1.000  C
  S6       1.0000 0.48084  0.66661  0.08182  Biso   1.000  S
  C327     1.0000 0.05193  0.05807  0.07937  Biso   1.000  C
  C328     1.0000 0.61383  0.33957  0.08176  Biso   1.000  C
  C329     1.0000 0.33753  0.33667  0.11382  Biso   1.000  C
  N11      1.0000 0.41193  0.42327  0.03032  Biso   1.000  N
  C330     1.0000 0.15583  0.12937  0.07634  Biso   1.000  C
  H182     1.0000 0.19073  0.13887  0.07337  Biso   1.000  H
  C331     1.0000 0.61303  0.38257  0.08628  Biso   1.000  C
  H183     1.0000 0.64813  0.40997  0.08907  Biso   1.000  H
  C332     1.0000 0.05253  0.10087  0.08427  Biso   1.000  C
  H184     1.0000 0.01673  0.09227  0.08687  Biso   1.000  H
  C333     1.0000 0.56093  0.38757  0.08695  Biso   1.000  C
  H185     1.0000 0.56183  0.41837  0.09007  Biso   1.000  H
  N12      1.0000 0.33823  0.27547  0.13727  Biso   1.000  N
  C334     1.0000 0.33933  0.29757  0.12953  Biso   1.000  C
  C335     1.0000 0.10443  0.07227  0.07526  Biso   1.000  C
  H186     1.0000 0.10563  0.04397  0.07177  Biso   1.000  H
  C336     1.0000 0.50933  0.30427  0.07841  Biso   1.000  C
  H187     1.0000 0.47453  0.27707  0.07557  Biso   1.000  H
  C337     1.0000 0.36953  0.35797  0.05076  Biso   1.000  C
  H188     1.0000 0.36103  0.32237  0.05347  Biso   1.000  H
  C338     1.0000 0.56143  0.30057  0.07790  Biso   1.000  C
  H189     1.0000 0.56093  0.26997  0.07477  Biso   1.000  H
  C339     1.0000 0.55213  0.33087  0.15464  Biso   1.000  C
  C340     1.0000 0.38613  0.37027  0.11912  Biso   1.000  C
  H190     1.0000 0.41993  0.40617  0.11737  Biso   1.000  H
  C341     1.0000 0.36613  0.40347  0.05497  Biso   1.000  C
  C342     1.0000 0.17673  0.14727  0.14903  Biso   1.000  C
  C343     1.0000 0.28373  0.23067  0.14101  Biso   1.000  C
  C344     1.0000 0.34103  0.35817  0.10551  Biso   1.000  C
  C345     1.0000 0.38473  0.36327  0.04284  Biso   1.000  C
  H191     1.0000 0.38883  0.33317  0.04017  Biso   1.000  H
  C346     1.0000 0.51883  0.35917  0.01979  Biso   1.000  C
  C347     1.0000 0.38503  0.35137  0.12696  Biso   1.000  C
  H192     1.0000 0.41633  0.37637  0.13047  Biso   1.000  H
  C348     1.0000 0.49853  0.31937  0.15016  Biso   1.000  C
  C349     1.0000 0.49463  0.30537  0.14200  Biso   1.000  C
  H193     1.0000 0.52753  0.30617  0.13937  Biso   1.000  H
  C350     1.0000 0.39793  0.46167  0.02548  Biso   1.000  C
  C351     1.0000 0.39393  0.41637  0.03884  Biso   1.000  C
  C352     1.0000 0.55743  0.34237  0.01564  Biso   1.000  C
  C353     1.0000 0.44173  0.54627  0.08641  Biso   1.000  C
  C354     1.0000 0.36083  0.57137  0.01004  Biso   1.000  C
  C355     1.0000 0.39313  0.29317  0.14141  Biso   1.000  C
  C356     1.0000 0.53023  0.38217  0.02736  Biso   1.000  C
  H194     1.0000 0.56263  0.38347  0.03017  Biso   1.000  H
  C357     1.0000 0.28903  0.26207  0.12429  Biso   1.000  C
  H195     1.0000 0.25583  0.22587  0.12607  Biso   1.000  H
  C358     1.0000 0.29043  0.28207  0.11666  Biso   1.000  C
  H196     1.0000 0.25833  0.25787  0.11327  Biso   1.000  H
  C359     1.0000 0.27933  0.18037  0.14414  Biso   1.000  C
  H197     1.0000 0.31193  0.17337  0.14367  Biso   1.000  H
  C360     1.0000 0.22613  0.13707  0.14824  Biso   1.000  C
  H198     1.0000 0.22403  0.10227  0.15037  Biso   1.000  H
  C361     1.0000 0.33963  0.45307  0.02460  Biso   1.000  C
  H199     1.0000 0.30753  0.42307  0.02757  Biso   1.000  H
  C362     1.0000 0.23523  0.23927  0.14160  Biso   1.000  C
  H200     1.0000 0.23663  0.27357  0.13937  Biso   1.000  H
  C363     1.0000 0.43353  0.54617  0.01655  Biso   1.000  C
  H201     1.0000 0.46523  0.57827  0.01377  Biso   1.000  H
  C364     1.0000 0.49673  0.40297  0.03095  Biso   1.000  C
  H202     1.0000 0.50683  0.41917  0.03607  Biso   1.000  H
  C365     1.0000 0.44663  0.51077  0.02160  Biso   1.000  C
  H203     1.0000 0.48653  0.51927  0.02237  Biso   1.000  H
  C366     1.0000 0.44943  0.40057  0.02722  Biso   1.000  C
  C367     1.0000 0.12513  0.10627  0.15347  Biso   1.000  C
  C368     1.0000 0.37603  0.45457  0.05081  Biso   1.000  C
  H204     1.0000 0.37543  0.48607  0.05357  Biso   1.000  H
  C369     1.0000 0.47043  0.35557  0.01596  Biso   1.000  C
  H205     1.0000 0.46093  0.33847  0.01087  Biso   1.000  H
  C370     1.0000 0.32943  0.48787  0.01954  Biso   1.000  C
  H206     1.0000 0.28963  0.47957  0.01867  Biso   1.000  H
  C371     1.0000 0.39813  0.31017  0.14929  Biso   1.000  C
  H207     1.0000 0.36573  0.31117  0.15177  Biso   1.000  H
  C372     1.0000 0.38643  0.46057  0.04286  Biso   1.000  C
  H208     1.0000 0.38863  0.49347  0.04007  Biso   1.000  H
  C373     1.0000 0.43373  0.37647  0.01939  Biso   1.000  C
  H209     1.0000 0.40083  0.37467  0.01667  Biso   1.000  H
  C374     1.0000 0.18353  0.19657  0.14558  Biso   1.000  C
  H210     1.0000 0.15073  0.20347  0.14587  Biso   1.000  H
  C375     1.0000 0.56153  0.79187  0.08451  Biso   1.000  C
  C376     1.0000 0.44253  0.29057  0.13784  Biso   1.000  C
  H211     1.0000 0.43953  0.27857  0.13247  Biso   1.000  H
  C377     1.0000 0.45363  0.32657  0.15381  Biso   1.000  C
  H212     1.0000 0.45853  0.34137  0.15897  Biso   1.000  H
  O128     1.0000 0.60833  0.82637  0.09126  Biso   1.000  O
  C378     1.0000 0.57423  0.70097  0.08962  Biso   1.000  C
  H213     1.0000 0.61403  0.72607  0.09137  Biso   1.000  H
  C379     1.0000 0.54273  0.63717  0.09070  Biso   1.000  C
  H214     1.0000 0.55773  0.61537  0.09337  Biso   1.000  H
  C380     1.0000 0.48773  0.61297  0.08718  Biso   1.000  C
  C381     1.0000 0.54243  0.72287  0.08581  Biso   1.000  C
  O129     1.0000 0.40713  0.62137  0.00757  Biso   1.000  O
  O130     1.0000 0.30563  0.55327  0.00794  Biso   1.000  O
  C382     1.0000 0.37573  0.53537  0.01556  Biso   1.000  C
  O131     1.0000 0.53143  0.79877  0.07952  Biso   1.000  O
  O132     1.0000 0.20863  0.38087  0.08513  Biso   1.000  O
  C383     1.0000 0.52683  0.63607  0.09531  Biso   1.000  C
  H215     1.0000 0.53013  0.61277  0.09937  Biso   1.000  H
  C384     1.0000 0.55783  0.70697  0.09468  Biso   1.000  C
  H216     1.0000 0.58093  0.73507  0.09867  Biso   1.000  H
  Zn37     1.0000 0.34039  0.34088  0.41159  Biso   1.000  Zn
  Zn38     1.0000 0.24249  0.31175  0.42511  Biso   1.000  Zn
  Zn39     1.0000 0.31535  0.24234  0.42518  Biso   1.000  Zn
  Zn40     1.0000 0.21536  0.21463  0.41143  Biso   1.000  Zn
  Zn41     1.0000 0.68113  0.41234  0.49539  Biso   1.000  Zn
  Zn42     1.0000 0.98018  0.06075  0.33393  Biso   1.000  Zn
  O133     1.0000 0.27858  0.27709  0.41806  Biso   1.000  O
  O134     1.0000 0.39911  0.27321  0.42074  Biso   1.000  O
  O135     1.0000 0.26904  0.39430  0.42165  Biso   1.000  O
  O136     1.0000 0.31852  0.32822  0.40016  Biso   1.000  O
  O137     1.0000 0.34729  0.42169  0.41354  Biso   1.000  O
  O138     1.0000 0.26530  0.32090  0.43631  Biso   1.000  O
  O139     1.0000 0.42137  0.34762  0.41201  Biso   1.000  O
  O140     1.0000 0.15590  0.27230  0.42453  Biso   1.000  O
  O141     1.0000 0.13430  0.20460  0.41435  Biso   1.000  O
  O142     1.0000 0.22740  0.24220  0.40032  Biso   1.000  O
  C385     1.0000 0.49400  0.31880  0.41483  Biso   1.000  C
  O143     1.0000 0.33720  0.29560  0.43482  Biso   1.000  O
  C386     1.0000 0.43410  0.31320  0.41570  Biso   1.000  C
  O144     1.0000 0.32060  0.58940  0.35254  Biso   1.000  O
  O145     1.0000 0.33970  0.59940  0.48458  Biso   1.000  O
  O146     1.0000 0.34720  0.55800  0.34203  Biso   1.000  O
  O147     1.0000 0.32170  0.54110  0.49553  Biso   1.000  O
  O148     1.0000 0.61270  0.40220  0.48906  Biso   1.000  O
  C387     1.0000 0.31220  0.43270  0.41714  Biso   1.000  C
  C388     1.0000 0.31850  0.49410  0.41644  Biso   1.000  C
  C389     1.0000 0.50870  0.28050  0.41891  Biso   1.000  C
  H217     1.0000 0.48110  0.25190  0.42250  Biso   1.000  H
  O149     1.0000 0.54830  0.29990  0.48883  Biso   1.000  O
  C390     1.0000 0.27090  0.28900  0.39693  Biso   1.000  C
  S7       1.0000 0.00006  0.14757  0.41516  Biso   1.000  S
  C391     1.0000 0.60860  0.32720  0.41270  Biso   1.000  C
  C392     1.0000 0.32710  0.60760  0.41509  Biso   1.000  C
  C393     1.0000 0.33000  0.33420  0.44715  Biso   1.000  C
  N13      1.0000 0.24340  0.32200  0.36365  Biso   1.000  N
  C394     1.0000 0.53730  0.35980  0.40967  Biso   1.000  C
  H218     1.0000 0.52780  0.38520  0.40670  Biso   1.000  H
  C395     1.0000 0.28410  0.56380  0.41961  Biso   1.000  C
  H219     1.0000 0.25670  0.57150  0.42240  Biso   1.000  H
  C396     1.0000 0.56580  0.28500  0.41760  Biso   1.000  C
  H220     1.0000 0.57440  0.25780  0.42020  Biso   1.000  H
  C397     1.0000 0.27910  0.50670  0.42028  Biso   1.000  C
  H221     1.0000 0.24830  0.47680  0.42340  Biso   1.000  H
  N14      1.0000 0.39120  0.39610  0.47060  Biso   1.000  N
  C398     1.0000 0.36910  0.37510  0.46286  Biso   1.000  C
  C399     1.0000 0.59440  0.36550  0.40859  Biso   1.000  C
  H222     1.0000 0.62270  0.39500  0.40510  Biso   1.000  H
  C400     1.0000 0.36240  0.53840  0.41174  Biso   1.000  C
  H223     1.0000 0.38960  0.53080  0.40890  Biso   1.000  H
  C401     1.0000 0.30870  0.34490  0.38409  Biso   1.000  C
  H224     1.0000 0.34430  0.37200  0.38680  Biso   1.000  H
  C402     1.0000 0.36610  0.59420  0.41123  Biso   1.000  C
  H225     1.0000 0.39670  0.62430  0.40810  Biso   1.000  H
  C403     1.0000 0.33580  0.55460  0.48797  Biso   1.000  C
  C404     1.0000 0.29640  0.34920  0.45245  Biso   1.000  C
  H226     1.0000 0.26050  0.34710  0.45070  Biso   1.000  H
  C405     1.0000 0.26320  0.29600  0.38830  Biso   1.000  C
  C406     1.0000 0.51940  0.36280  0.48236  Biso   1.000  C
  C407     1.0000 0.43600  0.38640  0.47434  Biso   1.000  C
  C408     1.0000 0.30850  0.31620  0.43884  Biso   1.000  C
  C409     1.0000 0.30340  0.35480  0.37617  Biso   1.000  C
  H227     1.0000 0.33350  0.38900  0.37350  Biso   1.000  H
  C410     1.0000 0.30750  0.49300  0.35312  Biso   1.000  C
  C411     1.0000 0.31530  0.36700  0.46029  Biso   1.000  C
  H228     1.0000 0.29030  0.37330  0.46380  Biso   1.000  H
  C412     1.0000 0.34730  0.51250  0.48349  Biso   1.000  C
  C413     1.0000 0.36130  0.52260  0.47533  Biso   1.000  C
  H229     1.0000 0.36050  0.55470  0.47270  Biso   1.000  H
  C414     1.0000 0.20500  0.26960  0.35881  Biso   1.000  C
  C415     1.0000 0.25030  0.31090  0.37217  Biso   1.000  C
  C416     1.0000 0.32430  0.54840  0.34897  Biso   1.000  C
  C417     1.0000 0.12040  0.22880  0.41974  Biso   1.000  C
  C418     1.0000 0.09530  0.12280  0.34337  Biso   1.000  C
  C419     1.0000 0.37350  0.43330  0.47474  Biso   1.000  C
  C420     1.0000 0.28450  0.48140  0.36069  Biso   1.000  C
  H230     1.0000 0.28320  0.51250  0.36350  Biso   1.000  H
  C421     1.0000 0.40460  0.36030  0.45762  Biso   1.000  C
  H231     1.0000 0.44080  0.36330  0.45940  Biso   1.000  H
  C422     1.0000 0.38460  0.34170  0.44999  Biso   1.000  C
  H232     1.0000 0.40880  0.33380  0.44660  Biso   1.000  H
  C423     1.0000 0.48630  0.43230  0.47747  Biso   1.000  C
  H233     1.0000 0.49330  0.47190  0.47700  Biso   1.000  H
  C424     1.0000 0.52960  0.42240  0.48157  Biso   1.000  C
  H234     1.0000 0.56440  0.45510  0.48370  Biso   1.000  H
  C425     1.0000 0.21360  0.21990  0.35793  Biso   1.000  C
  H235     1.0000 0.24360  0.21780  0.36090  Biso   1.000  H
  C426     1.0000 0.42740  0.32930  0.47493  Biso   1.000  C
  H236     1.0000 0.39310  0.29640  0.47270  Biso   1.000  H
  C427     1.0000 0.12050  0.22070  0.34988  Biso   1.000  C
  H237     1.0000 0.08840  0.22030  0.34710  Biso   1.000  H
  C428     1.0000 0.26370  0.42710  0.36428  Biso   1.000  C
  H238     1.0000 0.24750  0.42100  0.36940  Biso   1.000  H
  C429     1.0000 0.15590  0.26920  0.35493  Biso   1.000  C
  H239     1.0000 0.14740  0.30060  0.35570  Biso   1.000  H
  C430     1.0000 0.26610  0.38220  0.36055  Biso   1.000  C
  C431     1.0000 0.56040  0.35220  0.48680  Biso   1.000  C
  C432     1.0000 0.21210  0.25480  0.38414  Biso   1.000  C
  H240     1.0000 0.18060  0.22270  0.38690  Biso   1.000  H
  C433     1.0000 0.31110  0.44820  0.34929  Biso   1.000  C
  H241     1.0000 0.32820  0.45580  0.34420  Biso   1.000  H
  C434     1.0000 0.17880  0.17490  0.35287  Biso   1.000  C
  H242     1.0000 0.18710  0.14340  0.35200  Biso   1.000  H
  C435     1.0000 0.35650  0.42130  0.48262  Biso   1.000  C
  H243     1.0000 0.35550  0.38790  0.48510  Biso   1.000  H
  C436     1.0000 0.20610  0.25920  0.37619  Biso   1.000  C
  H244     1.0000 0.17320  0.22850  0.37340  Biso   1.000  H
  C437     1.0000 0.29020  0.39060  0.35272  Biso   1.000  C
  H245     1.0000 0.29200  0.35950  0.35000  Biso   1.000  H
  C438     1.0000 0.47010  0.32030  0.47891  Biso   1.000  C
  H246     1.0000 0.46320  0.28060  0.47920  Biso   1.000  H
  C439     1.0000 0.87480  0.10300  0.41784  Biso   1.000  C
  C440     1.0000 0.37610  0.48530  0.47117  Biso   1.000  C
  H247     1.0000 0.38810  0.49430  0.46580  Biso   1.000  H
  C441     1.0000 0.34010  0.46040  0.48714  Biso   1.000  C
  H248     1.0000 0.32530  0.45050  0.49230  Biso   1.000  H
  O150     1.0000 0.84030  0.11530  0.42459  Biso   1.000  O
  C442     1.0000 0.96570  0.20660  0.42295  Biso   1.000  C
  H249     1.0000 0.94060  0.22130  0.42470  Biso   1.000  H
  C443     1.0000 0.02950  0.23890  0.42403  Biso   1.000  C
  H250     1.0000 0.05130  0.27570  0.42670  Biso   1.000  H
  C444     1.0000 0.05370  0.20810  0.42051  Biso   1.000  C
  C445     1.0000 0.94380  0.15290  0.41914  Biso   1.000  C
  O151     1.0000 0.04530  0.11910  0.34090  Biso   1.000  O
  O152     1.0000 0.11340  0.08570  0.34127  Biso   1.000  O
  C446     1.0000 0.13130  0.17370  0.34889  Biso   1.000  C
  O153     1.0000 0.86790  0.06600  0.41285  Biso   1.000  O
  O154     1.0000 0.28580  0.16110  0.41846  Biso   1.000  O
  C447     1.0000 0.03060  0.22410  0.42864  Biso   1.000  C
  H251     1.0000 0.05390  0.25070  0.43270  Biso   1.000  H
  C448     1.0000 0.95970  0.18420  0.42801  Biso   1.000  C
  H252     1.0000 0.93160  0.17920  0.43200  Biso   1.000  H
  Zn43     1.0000 0.00706  0.67421  0.74492  Biso   1.000  Zn
  Zn44     1.0000 0.90916  0.64508  0.75844  Biso   1.000  Zn
  Zn45     1.0000 0.98202  0.57567  0.75852  Biso   1.000  Zn
  Zn46     1.0000 0.88203  0.54796  0.74477  Biso   1.000  Zn
  Zn47     1.0000 0.34780  0.74567  0.82872  Biso   1.000  Zn
  Zn48     1.0000 0.64685  0.39408  0.66727  Biso   1.000  Zn
  O155     1.0000 0.94525  0.61042  0.75140  Biso   1.000  O
  O156     1.0000 0.06578  0.60654  0.75407  Biso   1.000  O
  O157     1.0000 0.93571  0.72763  0.75498  Biso   1.000  O
  O158     1.0000 0.98519  0.66155  0.73349  Biso   1.000  O
  O159     1.0000 0.01396  0.75502  0.74687  Biso   1.000  O
  O160     1.0000 0.93197  0.65423  0.76964  Biso   1.000  O
  O161     1.0000 0.08804  0.68095  0.74534  Biso   1.000  O
  O162     1.0000 0.82257  0.60563  0.75786  Biso   1.000  O
  O163     1.0000 0.80097  0.53793  0.74768  Biso   1.000  O
  O164     1.0000 0.89407  0.57553  0.73365  Biso   1.000  O
  C449     1.0000 0.16067  0.65213  0.74816  Biso   1.000  C
  O165     1.0000 0.00387  0.62893  0.76815  Biso   1.000  O
  C450     1.0000 0.10077  0.64653  0.74903  Biso   1.000  C
  O166     1.0000 0.98727  0.92273  0.68587  Biso   1.000  O
  O167     1.0000 0.00637  0.93273  0.81791  Biso   1.000  O
  O168     1.0000 0.01387  0.89133  0.67536  Biso   1.000  O
  O169     1.0000 0.98837  0.87443  0.82886  Biso   1.000  O
  O170     1.0000 0.27937  0.73553  0.82239  Biso   1.000  O
  C451     1.0000 0.97887  0.76603  0.75047  Biso   1.000  C
  C452     1.0000 0.98517  0.82743  0.74977  Biso   1.000  C
  C453     1.0000 0.17537  0.61383  0.75224  Biso   1.000  C
  H253     1.0000 0.14777  0.58523  0.75583  Biso   1.000  H
  O171     1.0000 0.21497  0.63323  0.82216  Biso   1.000  O
  C454     1.0000 0.93757  0.62233  0.73026  Biso   1.000  C
  S8       1.0000 0.66673  0.48090  0.74849  Biso   1.000  S
  C455     1.0000 0.27527  0.66053  0.74603  Biso   1.000  C
  C456     1.0000 0.99377  0.94093  0.74842  Biso   1.000  C
  C457     1.0000 0.99667  0.66753  0.78048  Biso   1.000  C
  N15      1.0000 0.91007  0.65533  0.69698  Biso   1.000  N
  C458     1.0000 0.20397  0.69313  0.74300  Biso   1.000  C
  H254     1.0000 0.19447  0.71853  0.74003  Biso   1.000  H
  C459     1.0000 0.95077  0.89713  0.75294  Biso   1.000  C
  H255     1.0000 0.92337  0.90483  0.75573  Biso   1.000  H
  C460     1.0000 0.23247  0.61833  0.75093  Biso   1.000  C
  H256     1.0000 0.24107  0.59113  0.75353  Biso   1.000  H
  C461     1.0000 0.94577  0.84003  0.75361  Biso   1.000  C
  H257     1.0000 0.91497  0.81013  0.75673  Biso   1.000  H
  N16      1.0000 0.05787  0.72943  0.80393  Biso   1.000  N
  C462     1.0000 0.03577  0.70843  0.79619  Biso   1.000  C
  C463     1.0000 0.26107  0.69883  0.74192  Biso   1.000  C
  H258     1.0000 0.28937  0.72833  0.73843  Biso   1.000  H
  C464     1.0000 0.02907  0.87173  0.74507  Biso   1.000  C
  H259     1.0000 0.05627  0.86413  0.74223  Biso   1.000  H
  C465     1.0000 0.97537  0.67823  0.71742  Biso   1.000  C
  H260     1.0000 0.01097  0.70533  0.72013  Biso   1.000  H
  C466     1.0000 0.03277  0.92753  0.74456  Biso   1.000  C
  H261     1.0000 0.06337  0.95763  0.74143  Biso   1.000  H
  C467     1.0000 0.00247  0.88793  0.82130  Biso   1.000  C
  C468     1.0000 0.96307  0.68253  0.78578  Biso   1.000  C
  H262     1.0000 0.92717  0.68043  0.78403  Biso   1.000  H
  C469     1.0000 0.92987  0.62933  0.72163  Biso   1.000  C
  C470     1.0000 0.18607  0.69613  0.81569  Biso   1.000  C
  C471     1.0000 0.10267  0.71973  0.80767  Biso   1.000  C
  C472     1.0000 0.97517  0.64953  0.77217  Biso   1.000  C
  C473     1.0000 0.97007  0.68813  0.70950  Biso   1.000  C
  H263     1.0000 0.00017  0.72233  0.70683  Biso   1.000  H
  C474     1.0000 0.97417  0.82633  0.68645  Biso   1.000  C
  C475     1.0000 0.98197  0.70033  0.79362  Biso   1.000  C
  H264     1.0000 0.95697  0.70663  0.79713  Biso   1.000  H
  C476     1.0000 0.01397  0.84583  0.81682  Biso   1.000  C
  C477     1.0000 0.02797  0.85593  0.80866  Biso   1.000  C
  H265     1.0000 0.02717  0.88803  0.80603  Biso   1.000  H
  C478     1.0000 0.87167  0.60293  0.69214  Biso   1.000  C
  C479     1.0000 0.91697  0.64423  0.70550  Biso   1.000  C
  C480     1.0000 0.99097  0.88173  0.68230  Biso   1.000  C
  C481     1.0000 0.78707  0.56213  0.75307  Biso   1.000  C
  C482     1.0000 0.76197  0.45613  0.67670  Biso   1.000  C
  C483     1.0000 0.04017  0.76663  0.80807  Biso   1.000  C
  C484     1.0000 0.95117  0.81473  0.69402  Biso   1.000  C
  H266     1.0000 0.94987  0.84583  0.69683  Biso   1.000  H
  C485     1.0000 0.07127  0.69363  0.79095  Biso   1.000  C
  H267     1.0000 0.10747  0.69663  0.79273  Biso   1.000  H
  C486     1.0000 0.05127  0.67503  0.78332  Biso   1.000  C
  H268     1.0000 0.07547  0.66713  0.77993  Biso   1.000  H
  C487     1.0000 0.15297  0.76563  0.81080  Biso   1.000  C
  H269     1.0000 0.15997  0.80523  0.81033  Biso   1.000  H
  C488     1.0000 0.19627  0.75573  0.81490  Biso   1.000  C
  H270     1.0000 0.23107  0.78843  0.81703  Biso   1.000  H
  C489     1.0000 0.88027  0.55323  0.69126  Biso   1.000  C
  H271     1.0000 0.91027  0.55113  0.69423  Biso   1.000  H
  C490     1.0000 0.09407  0.66263  0.80826  Biso   1.000  C
  H272     1.0000 0.05977  0.62973  0.80603  Biso   1.000  H
  C491     1.0000 0.78717  0.55403  0.68321  Biso   1.000  C
  H273     1.0000 0.75507  0.55363  0.68043  Biso   1.000  H
  C492     1.0000 0.93037  0.76043  0.69761  Biso   1.000  C
  H274     1.0000 0.91417  0.75433  0.70273  Biso   1.000  H
  C493     1.0000 0.82257  0.60253  0.68826  Biso   1.000  C
  H275     1.0000 0.81407  0.63393  0.68903  Biso   1.000  H
  C494     1.0000 0.93277  0.71553  0.69388  Biso   1.000  C
  C495     1.0000 0.22707  0.68553  0.82013  Biso   1.000  C
  C496     1.0000 0.87877  0.58813  0.71747  Biso   1.000  C
  H276     1.0000 0.84727  0.55603  0.72023  Biso   1.000  H
  C497     1.0000 0.97777  0.78153  0.68262  Biso   1.000  C
  H277     1.0000 0.99487  0.78913  0.67753  Biso   1.000  H
  C498     1.0000 0.84547  0.50823  0.68620  Biso   1.000  C
  H278     1.0000 0.85377  0.47673  0.68533  Biso   1.000  H
  C499     1.0000 0.02317  0.75463  0.81595  Biso   1.000  C
  H279     1.0000 0.02217  0.72123  0.81843  Biso   1.000  H
  C500     1.0000 0.87277  0.59253  0.70952  Biso   1.000  C
  H280     1.0000 0.83987  0.56183  0.70673  Biso   1.000  H
  C501     1.0000 0.95687  0.72393  0.68605  Biso   1.000  C
  H281     1.0000 0.95867  0.69283  0.68333  Biso   1.000  H
  C502     1.0000 0.13677  0.65363  0.81224  Biso   1.000  C
  H282     1.0000 0.12987  0.61393  0.81253  Biso   1.000  H
  C503     1.0000 0.54147  0.43633  0.75117  Biso   1.000  C
  C504     1.0000 0.04277  0.81863  0.80450  Biso   1.000  C
  H283     1.0000 0.05477  0.82763  0.79913  Biso   1.000  H
  C505     1.0000 0.00677  0.79373  0.82047  Biso   1.000  C
  H284     1.0000 0.99197  0.78383  0.82563  Biso   1.000  H
  O172     1.0000 0.50697  0.44863  0.75792  Biso   1.000  O
  C506     1.0000 0.63237  0.53993  0.75628  Biso   1.000  C
  H285     1.0000 0.60727  0.55463  0.75803  Biso   1.000  H
  C507     1.0000 0.69617  0.57223  0.75736  Biso   1.000  C
  H286     1.0000 0.71797  0.60903  0.76003  Biso   1.000  H
  C508     1.0000 0.72037  0.54143  0.75384  Biso   1.000  C
  C509     1.0000 0.61047  0.48623  0.75247  Biso   1.000  C
  O173     1.0000 0.71197  0.45243  0.67423  Biso   1.000  O
  O174     1.0000 0.78007  0.41903  0.67460  Biso   1.000  O
  C510     1.0000 0.79797  0.50703  0.68222  Biso   1.000  C
  O175     1.0000 0.53457  0.39933  0.74618  Biso   1.000  O
  O176     1.0000 0.95247  0.49443  0.75179  Biso   1.000  O
  C511     1.0000 0.69727  0.55743  0.76197  Biso   1.000  C
  H287     1.0000 0.72057  0.58403  0.76603  Biso   1.000  H
  C512     1.0000 0.62637  0.51753  0.76134  Biso   1.000  C
  H288     1.0000 0.59827  0.51253  0.76533  Biso   1.000  H
  Zn49     1.0000 0.67372  0.00755  0.07826  Biso   1.000  Zn
  Zn50     1.0000 0.57582  0.97842  0.09177  Biso   1.000  Zn
  Zn51     1.0000 0.64868  0.90901  0.09185  Biso   1.000  Zn
  Zn52     1.0000 0.54869  0.88130  0.07810  Biso   1.000  Zn
  Zn53     1.0000 0.01446  0.07901  0.16205  Biso   1.000  Zn
  Zn54     1.0000 0.31351  0.72742  0.00060  Biso   1.000  Zn
  O177     1.0000 0.61191  0.94376  0.08473  Biso   1.000  O
  O178     1.0000 0.73244  0.93988  0.08741  Biso   1.000  O
  O179     1.0000 0.60237  0.06097  0.08832  Biso   1.000  O
  O180     1.0000 0.65185  0.99489  0.06683  Biso   1.000  O
  O181     1.0000 0.68062  0.08836  0.08021  Biso   1.000  O
  O182     1.0000 0.59863  0.98757  0.10298  Biso   1.000  O
  O183     1.0000 0.75470  0.01429  0.07868  Biso   1.000  O
  O184     1.0000 0.48923  0.93897  0.09120  Biso   1.000  O
  O185     1.0000 0.46763  0.87127  0.08102  Biso   1.000  O
  O186     1.0000 0.56073  0.90887  0.06699  Biso   1.000  O
  C513     1.0000 0.82733  0.98547  0.08150  Biso   1.000  C
  O187     1.0000 0.67053  0.96227  0.10149  Biso   1.000  O
  C514     1.0000 0.76743  0.97987  0.08237  Biso   1.000  C
  O188     1.0000 0.65393  0.25607  0.01921  Biso   1.000  O
  O189     1.0000 0.67303  0.26607  0.15125  Biso   1.000  O
  O190     1.0000 0.68053  0.22467  0.00870  Biso   1.000  O
  O191     1.0000 0.65503  0.20777  0.16220  Biso   1.000  O
  O192     1.0000 0.94603  0.06887  0.15573  Biso   1.000  O
  C515     1.0000 0.64553  0.09937  0.08381  Biso   1.000  C
  C516     1.0000 0.65183  0.16077  0.08311  Biso   1.000  C
  C517     1.0000 0.84203  0.94717  0.08558  Biso   1.000  C
  H289     1.0000 0.81443  0.91857  0.08917  Biso   1.000  H
  O193     1.0000 0.88163  0.96657  0.15550  Biso   1.000  O
  C518     1.0000 0.60423  0.95567  0.06360  Biso   1.000  C
  S9       1.0000 0.33339  0.81424  0.08182  Biso   1.000  S
  C519     1.0000 0.94193  0.99387  0.07937  Biso   1.000  C
  C520     1.0000 0.66043  0.27427  0.08176  Biso   1.000  C
  C521     1.0000 0.66333  0.00087  0.11382  Biso   1.000  C
  N17      1.0000 0.57673  0.98867  0.03032  Biso   1.000  N
  C522     1.0000 0.87063  0.02647  0.07634  Biso   1.000  C
  H290     1.0000 0.86113  0.05187  0.07337  Biso   1.000  H
  C523     1.0000 0.61743  0.23047  0.08628  Biso   1.000  C
  H291     1.0000 0.59003  0.23817  0.08907  Biso   1.000  H
  C524     1.0000 0.89913  0.95167  0.08427  Biso   1.000  C
  H292     1.0000 0.90773  0.92447  0.08687  Biso   1.000  H
  C525     1.0000 0.61243  0.17337  0.08695  Biso   1.000  C
  H293     1.0000 0.58163  0.14347  0.09007  Biso   1.000  H
  N18      1.0000 0.72453  0.06277  0.13727  Biso   1.000  N
  C526     1.0000 0.70243  0.04177  0.12953  Biso   1.000  C
  C527     1.0000 0.92773  0.03217  0.07526  Biso   1.000  C
  H294     1.0000 0.95603  0.06167  0.07177  Biso   1.000  H
  C528     1.0000 0.69573  0.20507  0.07841  Biso   1.000  C
  H295     1.0000 0.72293  0.19747  0.07557  Biso   1.000  H
  C529     1.0000 0.64203  0.01157  0.05076  Biso   1.000  C
  H296     1.0000 0.67763  0.03867  0.05347  Biso   1.000  H
  C530     1.0000 0.69943  0.26087  0.07790  Biso   1.000  C
  H297     1.0000 0.73003  0.29097  0.07477  Biso   1.000  H
  C531     1.0000 0.66913  0.22127  0.15464  Biso   1.000  C
  C532     1.0000 0.62973  0.01587  0.11912  Biso   1.000  C
  H298     1.0000 0.59383  0.01377  0.11737  Biso   1.000  H
  C533     1.0000 0.59653  0.96267  0.05497  Biso   1.000  C
  C534     1.0000 0.85273  0.02947  0.14903  Biso   1.000  C
  C535     1.0000 0.76933  0.05307  0.14101  Biso   1.000  C
  C536     1.0000 0.64183  0.98287  0.10551  Biso   1.000  C
  C537     1.0000 0.63673  0.02147  0.04284  Biso   1.000  C
  H299     1.0000 0.66683  0.05567  0.04017  Biso   1.000  H
  C538     1.0000 0.64083  0.15967  0.01979  Biso   1.000  C
  C539     1.0000 0.64863  0.03367  0.12696  Biso   1.000  C
  H300     1.0000 0.62363  0.03997  0.13047  Biso   1.000  H
  C540     1.0000 0.68063  0.17917  0.15016  Biso   1.000  C
  C541     1.0000 0.69463  0.18927  0.14200  Biso   1.000  C
  H301     1.0000 0.69383  0.22137  0.13937  Biso   1.000  H
  C542     1.0000 0.53833  0.93627  0.02548  Biso   1.000  C
  C543     1.0000 0.58363  0.97757  0.03884  Biso   1.000  C
  C544     1.0000 0.65763  0.21507  0.01564  Biso   1.000  C
  C545     1.0000 0.45373  0.89547  0.08641  Biso   1.000  C
  C546     1.0000 0.42863  0.78947  0.01004  Biso   1.000  C
  C547     1.0000 0.70683  0.09997  0.14141  Biso   1.000  C
  C548     1.0000 0.61783  0.14807  0.02736  Biso   1.000  C
  H302     1.0000 0.61653  0.17917  0.03017  Biso   1.000  H
  C549     1.0000 0.73793  0.02697  0.12429  Biso   1.000  C
  H303     1.0000 0.77413  0.02997  0.12607  Biso   1.000  H
  C550     1.0000 0.71793  0.00837  0.11666  Biso   1.000  C
  H304     1.0000 0.74213  0.00047  0.11327  Biso   1.000  H
  C551     1.0000 0.81963  0.09897  0.14414  Biso   1.000  C
  H305     1.0000 0.82663  0.13857  0.14367  Biso   1.000  H
  C552     1.0000 0.86293  0.08907  0.14824  Biso   1.000  C
  H306     1.0000 0.89773  0.12177  0.15037  Biso   1.000  H
  C553     1.0000 0.54693  0.88657  0.02460  Biso   1.000  C
  H307     1.0000 0.57693  0.88447  0.02757  Biso   1.000  H
  C554     1.0000 0.76073  0.99597  0.14160  Biso   1.000  C
  H308     1.0000 0.72643  0.96307  0.13937  Biso   1.000  H
  C555     1.0000 0.45383  0.88737  0.01655  Biso   1.000  C
  H309     1.0000 0.42173  0.88697  0.01377  Biso   1.000  H
  C556     1.0000 0.59703  0.09377  0.03095  Biso   1.000  C
  H310     1.0000 0.58083  0.08767  0.03607  Biso   1.000  H
  C557     1.0000 0.48923  0.93587  0.02160  Biso   1.000  C
  H311     1.0000 0.48073  0.96727  0.02237  Biso   1.000  H
  C558     1.0000 0.59943  0.04887  0.02722  Biso   1.000  C
  C559     1.0000 0.89373  0.01887  0.15347  Biso   1.000  C
  C560     1.0000 0.54543  0.92147  0.05081  Biso   1.000  C
  H312     1.0000 0.51393  0.88937  0.05357  Biso   1.000  H
  C561     1.0000 0.64443  0.11487  0.01596  Biso   1.000  C
  H313     1.0000 0.66153  0.12247  0.01087  Biso   1.000  H
  C562     1.0000 0.51213  0.84157  0.01954  Biso   1.000  C
  H314     1.0000 0.52043  0.81007  0.01867  Biso   1.000  H
  C563     1.0000 0.68983  0.08797  0.14929  Biso   1.000  C
  H315     1.0000 0.68883  0.05457  0.15177  Biso   1.000  H
  C564     1.0000 0.53943  0.92587  0.04286  Biso   1.000  C
  H316     1.0000 0.50653  0.89517  0.04007  Biso   1.000  H
  C565     1.0000 0.62353  0.05727  0.01939  Biso   1.000  C
  H317     1.0000 0.62533  0.02617  0.01667  Biso   1.000  H
  C566     1.0000 0.80343  0.98697  0.14558  Biso   1.000  C
  H318     1.0000 0.79653  0.94727  0.14587  Biso   1.000  H
  C567     1.0000 0.20813  0.76967  0.08451  Biso   1.000  C
  C568     1.0000 0.70943  0.15197  0.13784  Biso   1.000  C
  H319     1.0000 0.72143  0.16097  0.13247  Biso   1.000  H
  C569     1.0000 0.67343  0.12707  0.15381  Biso   1.000  C
  H320     1.0000 0.65863  0.11717  0.15897  Biso   1.000  H
  O194     1.0000 0.17363  0.78197  0.09126  Biso   1.000  O
  C570     1.0000 0.29903  0.87327  0.08962  Biso   1.000  C
  H321     1.0000 0.27393  0.88797  0.09137  Biso   1.000  H
  C571     1.0000 0.36283  0.90557  0.09070  Biso   1.000  C
  H322     1.0000 0.38463  0.94237  0.09337  Biso   1.000  H
  C572     1.0000 0.38703  0.87477  0.08718  Biso   1.000  C
  C573     1.0000 0.27713  0.81957  0.08581  Biso   1.000  C
  O195     1.0000 0.37863  0.78577  0.00757  Biso   1.000  O
  O196     1.0000 0.44673  0.75237  0.00794  Biso   1.000  O
  C574     1.0000 0.46463  0.84037  0.01556  Biso   1.000  C
  O197     1.0000 0.20123  0.73267  0.07952  Biso   1.000  O
  O198     1.0000 0.61913  0.82777  0.08513  Biso   1.000  O
  C575     1.0000 0.36393  0.89077  0.09531  Biso   1.000  C
  H323     1.0000 0.38723  0.91737  0.09937  Biso   1.000  H
  C576     1.0000 0.29303  0.85087  0.09468  Biso   1.000  C
  H324     1.0000 0.26493  0.84587  0.09867  Biso   1.000  H
  Zn55     1.0000 0.34088  0.00049  0.58841  Biso   1.000  Zn
  Zn56     1.0000 0.31175  0.06926  0.57489  Biso   1.000  Zn
  Zn57     1.0000 0.24234  0.92699  0.57482  Biso   1.000  Zn
  Zn58     1.0000 0.21463  0.99927  0.58857  Biso   1.000  Zn
  Zn59     1.0000 0.41234  0.73121  0.50461  Biso   1.000  Zn
  Zn60     1.0000 0.06075  0.08057  0.66607  Biso   1.000  Zn
  O199     1.0000 0.27709  0.99851  0.58194  Biso   1.000  O
  O200     1.0000 0.27321  0.87410  0.57926  Biso   1.000  O
  O201     1.0000 0.39430  0.12526  0.57835  Biso   1.000  O
  O202     1.0000 0.32822  0.00970  0.59984  Biso   1.000  O
  O203     1.0000 0.42169  0.07440  0.58646  Biso   1.000  O
  O204     1.0000 0.32090  0.05560  0.56369  Biso   1.000  O
  O205     1.0000 0.34762  0.92625  0.58799  Biso   1.000  O
  O206     1.0000 0.27230  0.11640  0.57547  Biso   1.000  O
  O207     1.0000 0.20460  0.07030  0.58565  Biso   1.000  O
  O208     1.0000 0.24220  0.01480  0.59968  Biso   1.000  O
  C577     1.0000 0.31880  0.82480  0.58517  Biso   1.000  C
  O209     1.0000 0.29560  0.95840  0.56518  Biso   1.000  O
  C578     1.0000 0.31320  0.87910  0.58430  Biso   1.000  C
  O210     1.0000 0.58940  0.26880  0.64746  Biso   1.000  O
  O211     1.0000 0.59940  0.25970  0.51542  Biso   1.000  O
  O212     1.0000 0.55800  0.21080  0.65797  Biso   1.000  O
  O213     1.0000 0.54110  0.21940  0.50447  Biso   1.000  O
  O214     1.0000 0.40220  0.78950  0.51094  Biso   1.000  O
  C579     1.0000 0.43270  0.12050  0.58286  Biso   1.000  C
  C580     1.0000 0.49410  0.17560  0.58356  Biso   1.000  C
  C581     1.0000 0.28050  0.77180  0.58109  Biso   1.000  C
  H325     1.0000 0.25190  0.77080  0.57750  Biso   1.000  H
  O215     1.0000 0.29990  0.75160  0.51117  Biso   1.000  O
  C582     1.0000 0.28900  0.01810  0.60307  Biso   1.000  C
  S10      1.0000 0.14757  0.14751  0.58484  Biso   1.000  S
  C583     1.0000 0.32720  0.71860  0.58730  Biso   1.000  C
  C584     1.0000 0.60760  0.28050  0.58491  Biso   1.000  C
  C585     1.0000 0.33420  0.00420  0.55285  Biso   1.000  C
  N19      1.0000 0.32200  0.07860  0.63635  Biso   1.000  N
  C586     1.0000 0.35980  0.82250  0.59033  Biso   1.000  C
  H326     1.0000 0.38520  0.85740  0.59330  Biso   1.000  H
  C587     1.0000 0.56380  0.27970  0.58039  Biso   1.000  C
  H327     1.0000 0.57150  0.31480  0.57760  Biso   1.000  H
  C588     1.0000 0.28500  0.71920  0.58240  Biso   1.000  C
  H328     1.0000 0.25780  0.68340  0.57980  Biso   1.000  H
  C589     1.0000 0.50670  0.22760  0.57972  Biso   1.000  C
  H329     1.0000 0.47680  0.22850  0.57660  Biso   1.000  H
  N20      1.0000 0.39610  0.00490  0.52940  Biso   1.000  N
  C590     1.0000 0.37510  0.00600  0.53714  Biso   1.000  C
  C591     1.0000 0.36550  0.77110  0.59141  Biso   1.000  C
  H330     1.0000 0.39500  0.77230  0.59490  Biso   1.000  H
  C592     1.0000 0.53840  0.17600  0.58826  Biso   1.000  C
  H331     1.0000 0.53080  0.14120  0.59110  Biso   1.000  H
  C593     1.0000 0.34490  0.03620  0.61591  Biso   1.000  C
  H332     1.0000 0.37200  0.02770  0.61320  Biso   1.000  H
  C594     1.0000 0.59420  0.22810  0.58877  Biso   1.000  C
  H333     1.0000 0.62430  0.22760  0.59190  Biso   1.000  H
  C595     1.0000 0.55460  0.21880  0.51203  Biso   1.000  C
  C596     1.0000 0.34920  0.05280  0.54755  Biso   1.000  C
  H334     1.0000 0.34710  0.08660  0.54930  Biso   1.000  H
  C597     1.0000 0.29600  0.03280  0.61170  Biso   1.000  C
  C598     1.0000 0.36280  0.84340  0.51764  Biso   1.000  C
  C599     1.0000 0.38640  0.95040  0.52566  Biso   1.000  C
  C600     1.0000 0.31620  0.00770  0.56116  Biso   1.000  C
  C601     1.0000 0.35480  0.05140  0.62383  Biso   1.000  C
  H335     1.0000 0.38900  0.05550  0.62650  Biso   1.000  H
  C602     1.0000 0.49300  0.18550  0.64688  Biso   1.000  C
  C603     1.0000 0.36700  0.05170  0.53971  Biso   1.000  C
  H336     1.0000 0.37330  0.08300  0.53620  Biso   1.000  H
  C604     1.0000 0.51250  0.16520  0.51651  Biso   1.000  C
  C605     1.0000 0.52260  0.16130  0.52467  Biso   1.000  C
  H337     1.0000 0.55470  0.19420  0.52730  Biso   1.000  H
  C606     1.0000 0.26960  0.06460  0.64119  Biso   1.000  C
  C607     1.0000 0.31090  0.06060  0.62783  Biso   1.000  C
  C608     1.0000 0.54840  0.22410  0.65103  Biso   1.000  C
  C609     1.0000 0.22880  0.10840  0.58026  Biso   1.000  C
  C610     1.0000 0.12280  0.02750  0.65663  Biso   1.000  C
  C611     1.0000 0.43330  0.05980  0.52526  Biso   1.000  C
  C612     1.0000 0.48140  0.19690  0.63931  Biso   1.000  C
  H338     1.0000 0.51250  0.22930  0.63650  Biso   1.000  H
  C613     1.0000 0.36030  0.95570  0.54238  Biso   1.000  C
  H339     1.0000 0.36330  0.92250  0.54060  Biso   1.000  H
  C614     1.0000 0.34170  0.95710  0.55001  Biso   1.000  C
  H340     1.0000 0.33380  0.92500  0.55340  Biso   1.000  H
  C615     1.0000 0.43230  0.94600  0.52253  Biso   1.000  C
  H341     1.0000 0.47190  0.97860  0.52300  Biso   1.000  H
  C616     1.0000 0.42240  0.89280  0.51843  Biso   1.000  C
  H342     1.0000 0.45510  0.89070  0.51630  Biso   1.000  H
  C617     1.0000 0.21990  0.00630  0.64207  Biso   1.000  C
  H343     1.0000 0.21780  0.97420  0.63910  Biso   1.000  H
  C618     1.0000 0.32930  0.90190  0.52507  Biso   1.000  C
  H344     1.0000 0.29640  0.90330  0.52730  Biso   1.000  H
  C619     1.0000 0.22070  0.10020  0.65012  Biso   1.000  C
  H345     1.0000 0.22030  0.13190  0.65290  Biso   1.000  H
  C620     1.0000 0.42710  0.16340  0.63572  Biso   1.000  C
  H346     1.0000 0.42100  0.17350  0.63060  Biso   1.000  H
  C621     1.0000 0.26920  0.11330  0.64507  Biso   1.000  C
  H347     1.0000 0.30060  0.15320  0.64430  Biso   1.000  H
  C622     1.0000 0.38220  0.11610  0.63945  Biso   1.000  C
  C623     1.0000 0.35220  0.79180  0.51320  Biso   1.000  C
  C624     1.0000 0.25480  0.04270  0.61586  Biso   1.000  C
  H348     1.0000 0.22270  0.04210  0.61310  Biso   1.000  H
  C625     1.0000 0.44820  0.13710  0.65071  Biso   1.000  C
  H349     1.0000 0.45580  0.12760  0.65580  Biso   1.000  H
  C626     1.0000 0.17490  0.99610  0.64713  Biso   1.000  C
  H350     1.0000 0.14340  0.95630  0.64800  Biso   1.000  H
  C627     1.0000 0.42130  0.06480  0.51738  Biso   1.000  C
  H351     1.0000 0.38790  0.03240  0.51490  Biso   1.000  H
  C628     1.0000 0.25920  0.05310  0.62381  Biso   1.000  C
  H352     1.0000 0.22850  0.05530  0.62660  Biso   1.000  H
  C629     1.0000 0.39060  0.10040  0.64728  Biso   1.000  C
  H353     1.0000 0.35950  0.06750  0.65000  Biso   1.000  H
  C630     1.0000 0.32030  0.85020  0.52109  Biso   1.000  C
  H354     1.0000 0.28060  0.81740  0.52080  Biso   1.000  H
  C631     1.0000 0.10300  0.22820  0.58216  Biso   1.000  C
  C632     1.0000 0.48530  0.10920  0.52883  Biso   1.000  C
  H355     1.0000 0.49430  0.10620  0.53420  Biso   1.000  H
  C633     1.0000 0.46040  0.12030  0.51286  Biso   1.000  C
  H356     1.0000 0.45050  0.12520  0.50770  Biso   1.000  H
  O216     1.0000 0.11530  0.27500  0.57541  Biso   1.000  O
  C634     1.0000 0.20660  0.24090  0.57705  Biso   1.000  C
  H357     1.0000 0.22130  0.28070  0.57530  Biso   1.000  H
  C635     1.0000 0.23890  0.20940  0.57597  Biso   1.000  C
  H358     1.0000 0.27570  0.22440  0.57330  Biso   1.000  H
  C636     1.0000 0.20810  0.15440  0.57949  Biso   1.000  C
  C637     1.0000 0.15290  0.20910  0.58086  Biso   1.000  C
  O217     1.0000 0.11910  0.07380  0.65910  Biso   1.000  O
  O218     1.0000 0.08570  0.97230  0.65873  Biso   1.000  O
  C638     1.0000 0.17370  0.04240  0.65111  Biso   1.000  C
  O219     1.0000 0.06600  0.19810  0.58715  Biso   1.000  O
  O220     1.0000 0.16110  0.87530  0.58154  Biso   1.000  O
  C639     1.0000 0.22410  0.19350  0.57136  Biso   1.000  C
  H359     1.0000 0.25070  0.19680  0.56730  Biso   1.000  H
  C640     1.0000 0.18420  0.22450  0.57199  Biso   1.000  C
  H360     1.0000 0.17920  0.24760  0.56800  Biso   1.000  H
  Zn61     1.0000 0.00755  0.33382  0.92174  Biso   1.000  Zn
  Zn62     1.0000 0.97842  0.40259  0.90823  Biso   1.000  Zn
  Zn63     1.0000 0.90901  0.26032  0.90815  Biso   1.000  Zn
  Zn64     1.0000 0.88130  0.33260  0.92190  Biso   1.000  Zn
  Zn65     1.0000 0.07901  0.06454  0.83795  Biso   1.000  Zn
  Zn66     1.0000 0.72742  0.41390  0.99940  Biso   1.000  Zn
  O221     1.0000 0.94376  0.33184  0.91527  Biso   1.000  O
  O222     1.0000 0.93988  0.20743  0.91259  Biso   1.000  O
  O223     1.0000 0.06097  0.45859  0.91168  Biso   1.000  O
  O224     1.0000 0.99489  0.34303  0.93317  Biso   1.000  O
  O225     1.0000 0.08836  0.40773  0.91979  Biso   1.000  O
  O226     1.0000 0.98757  0.38893  0.89702  Biso   1.000  O
  O227     1.0000 0.01429  0.25958  0.92132  Biso   1.000  O
  O228     1.0000 0.93897  0.44973  0.90880  Biso   1.000  O
  O229     1.0000 0.87127  0.40363  0.91898  Biso   1.000  O
  O230     1.0000 0.90887  0.34813  0.93301  Biso   1.000  O
  C641     1.0000 0.98547  0.15813  0.91850  Biso   1.000  C
  O231     1.0000 0.96227  0.29173  0.89851  Biso   1.000  O
  C642     1.0000 0.97987  0.21243  0.91763  Biso   1.000  C
  O232     1.0000 0.25607  0.60213  0.98079  Biso   1.000  O
  O233     1.0000 0.26607  0.59303  0.84875  Biso   1.000  O
  O234     1.0000 0.22467  0.54413  0.99130  Biso   1.000  O
  O235     1.0000 0.20777  0.55273  0.83780  Biso   1.000  O
  O236     1.0000 0.06887  0.12283  0.84427  Biso   1.000  O
  C643     1.0000 0.09937  0.45383  0.91619  Biso   1.000  C
  C644     1.0000 0.16077  0.50893  0.91689  Biso   1.000  C
  C645     1.0000 0.94717  0.10513  0.91442  Biso   1.000  C
  H361     1.0000 0.91857  0.10413  0.91083  Biso   1.000  H
  O237     1.0000 0.96657  0.08493  0.84450  Biso   1.000  O
  C646     1.0000 0.95567  0.35143  0.93640  Biso   1.000  C
  S11      1.0000 0.81424  0.48084  0.91818  Biso   1.000  S
  C647     1.0000 0.99387  0.05193  0.92063  Biso   1.000  C
  C648     1.0000 0.27427  0.61383  0.91824  Biso   1.000  C
  C649     1.0000 0.00087  0.33753  0.88618  Biso   1.000  C
  N21      1.0000 0.98867  0.41193  0.96968  Biso   1.000  N
  C650     1.0000 0.02647  0.15583  0.92366  Biso   1.000  C
  H362     1.0000 0.05187  0.19073  0.92663  Biso   1.000  H
  C651     1.0000 0.23047  0.61303  0.91372  Biso   1.000  C
  H363     1.0000 0.23817  0.64813  0.91093  Biso   1.000  H
  C652     1.0000 0.95167  0.05253  0.91573  Biso   1.000  C
  H364     1.0000 0.92447  0.01673  0.91313  Biso   1.000  H
  C653     1.0000 0.17337  0.56093  0.91305  Biso   1.000  C
  H365     1.0000 0.14347  0.56183  0.90993  Biso   1.000  H
  N22      1.0000 0.06277  0.33823  0.86273  Biso   1.000  N
  C654     1.0000 0.04177  0.33933  0.87047  Biso   1.000  C
  C655     1.0000 0.03217  0.10443  0.92474  Biso   1.000  C
  H366     1.0000 0.06167  0.10563  0.92823  Biso   1.000  H
  C656     1.0000 0.20507  0.50933  0.92159  Biso   1.000  C
  H367     1.0000 0.19747  0.47453  0.92443  Biso   1.000  H
  C657     1.0000 0.01157  0.36953  0.94924  Biso   1.000  C
  H368     1.0000 0.03867  0.36103  0.94653  Biso   1.000  H
  C658     1.0000 0.26087  0.56143  0.92210  Biso   1.000  C
  H369     1.0000 0.29097  0.56093  0.92523  Biso   1.000  H
  C659     1.0000 0.22127  0.55213  0.84536  Biso   1.000  C
  C660     1.0000 0.01587  0.38613  0.88088  Biso   1.000  C
  H370     1.0000 0.01377  0.41993  0.88263  Biso   1.000  H
  C661     1.0000 0.96267  0.36613  0.94503  Biso   1.000  C
  C662     1.0000 0.02947  0.17673  0.85097  Biso   1.000  C
  C663     1.0000 0.05307  0.28373  0.85899  Biso   1.000  C
  C664     1.0000 0.98287  0.34103  0.89449  Biso   1.000  C
  C665     1.0000 0.02147  0.38473  0.95716  Biso   1.000  C
  H371     1.0000 0.05567  0.38883  0.95983  Biso   1.000  H
  C666     1.0000 0.15967  0.51883  0.98021  Biso   1.000  C
  C667     1.0000 0.03367  0.38503  0.87304  Biso   1.000  C
  H372     1.0000 0.03997  0.41633  0.86953  Biso   1.000  H
  C668     1.0000 0.17917  0.49853  0.84984  Biso   1.000  C
  C669     1.0000 0.18927  0.49463  0.85800  Biso   1.000  C
  H373     1.0000 0.22137  0.52753  0.86063  Biso   1.000  H
  C670     1.0000 0.93627  0.39793  0.97452  Biso   1.000  C
  C671     1.0000 0.97757  0.39393  0.96116  Biso   1.000  C
  C672     1.0000 0.21507  0.55743  0.98436  Biso   1.000  C
  C673     1.0000 0.89547  0.44173  0.91359  Biso   1.000  C
  C674     1.0000 0.78947  0.36083  0.98996  Biso   1.000  C
  C675     1.0000 0.09997  0.39313  0.85859  Biso   1.000  C
  C676     1.0000 0.14807  0.53023  0.97264  Biso   1.000  C
  H374     1.0000 0.17917  0.56263  0.96983  Biso   1.000  H
  C677     1.0000 0.02697  0.28903  0.87571  Biso   1.000  C
  H375     1.0000 0.02997  0.25583  0.87393  Biso   1.000  H
  C678     1.0000 0.00837  0.29043  0.88334  Biso   1.000  C
  H376     1.0000 0.00047  0.25833  0.88673  Biso   1.000  H
  C679     1.0000 0.09897  0.27933  0.85586  Biso   1.000  C
  H377     1.0000 0.13857  0.31193  0.85633  Biso   1.000  H
  C680     1.0000 0.08907  0.22613  0.85176  Biso   1.000  C
  H378     1.0000 0.12177  0.22403  0.84963  Biso   1.000  H
  C681     1.0000 0.88657  0.33963  0.97540  Biso   1.000  C
  H379     1.0000 0.88447  0.30753  0.97243  Biso   1.000  H
  C682     1.0000 0.99597  0.23523  0.85840  Biso   1.000  C
  H380     1.0000 0.96307  0.23663  0.86063  Biso   1.000  H
  C683     1.0000 0.88737  0.43353  0.98345  Biso   1.000  C
  H381     1.0000 0.88697  0.46523  0.98623  Biso   1.000  H
  C684     1.0000 0.09377  0.49673  0.96905  Biso   1.000  C
  H382     1.0000 0.08767  0.50683  0.96393  Biso   1.000  H
  C685     1.0000 0.93587  0.44663  0.97840  Biso   1.000  C
  H383     1.0000 0.96727  0.48653  0.97763  Biso   1.000  H
  C686     1.0000 0.04887  0.44943  0.97278  Biso   1.000  C
  C687     1.0000 0.01887  0.12513  0.84653  Biso   1.000  C
  C688     1.0000 0.92147  0.37603  0.94919  Biso   1.000  C
  H384     1.0000 0.88937  0.37543  0.94643  Biso   1.000  H
  C689     1.0000 0.11487  0.47043  0.98404  Biso   1.000  C
  H385     1.0000 0.12247  0.46093  0.98913  Biso   1.000  H
  C690     1.0000 0.84157  0.32943  0.98046  Biso   1.000  C
  H386     1.0000 0.81007  0.28963  0.98133  Biso   1.000  H
  C691     1.0000 0.08797  0.39813  0.85071  Biso   1.000  C
  H387     1.0000 0.05457  0.36573  0.84823  Biso   1.000  H
  C692     1.0000 0.92587  0.38643  0.95714  Biso   1.000  C
  H388     1.0000 0.89517  0.38863  0.95993  Biso   1.000  H
  C693     1.0000 0.05727  0.43373  0.98061  Biso   1.000  C
  H389     1.0000 0.02617  0.40083  0.98333  Biso   1.000  H
  C694     1.0000 0.98697  0.18353  0.85442  Biso   1.000  C
  H390     1.0000 0.94727  0.15073  0.85413  Biso   1.000  H
  C695     1.0000 0.76967  0.56153  0.91549  Biso   1.000  C
  C696     1.0000 0.15197  0.44253  0.86216  Biso   1.000  C
  H391     1.0000 0.16097  0.43953  0.86753  Biso   1.000  H
  C697     1.0000 0.12707  0.45363  0.84619  Biso   1.000  C
  H392     1.0000 0.11717  0.45853  0.84103  Biso   1.000  H
  O238     1.0000 0.78197  0.60833  0.90874  Biso   1.000  O
  C698     1.0000 0.87327  0.57423  0.91038  Biso   1.000  C
  H393     1.0000 0.88797  0.61403  0.90863  Biso   1.000  H
  C699     1.0000 0.90557  0.54273  0.90930  Biso   1.000  C
  H394     1.0000 0.94237  0.55773  0.90663  Biso   1.000  H
  C700     1.0000 0.87477  0.48773  0.91282  Biso   1.000  C
  C701     1.0000 0.81957  0.54243  0.91419  Biso   1.000  C
  O239     1.0000 0.78577  0.40713  0.99243  Biso   1.000  O
  O240     1.0000 0.75237  0.30563  0.99206  Biso   1.000  O
  C702     1.0000 0.84037  0.37573  0.98444  Biso   1.000  C
  O241     1.0000 0.73267  0.53143  0.92048  Biso   1.000  O
  O242     1.0000 0.82777  0.20863  0.91487  Biso   1.000  O
  C703     1.0000 0.89077  0.52683  0.90469  Biso   1.000  C
  H395     1.0000 0.91737  0.53013  0.90063  Biso   1.000  H
  C704     1.0000 0.85087  0.55783  0.90532  Biso   1.000  C
  H396     1.0000 0.84587  0.58093  0.90133  Biso   1.000  H
  Zn67     1.0000 0.67421  0.66716  0.25508  Biso   1.000  Zn
  Zn68     1.0000 0.64508  0.73593  0.24156  Biso   1.000  Zn
  Zn69     1.0000 0.57567  0.59366  0.24148  Biso   1.000  Zn
  Zn70     1.0000 0.54796  0.66594  0.25523  Biso   1.000  Zn
  Zn71     1.0000 0.74567  0.39788  0.17128  Biso   1.000  Zn
  Zn72     1.0000 0.39408  0.74724  0.33273  Biso   1.000  Zn
  O243     1.0000 0.61042  0.66518  0.24860  Biso   1.000  O
  O244     1.0000 0.60654  0.54077  0.24593  Biso   1.000  O
  O245     1.0000 0.72763  0.79193  0.24502  Biso   1.000  O
  O246     1.0000 0.66155  0.67637  0.26651  Biso   1.000  O
  O247     1.0000 0.75502  0.74107  0.25313  Biso   1.000  O
  O248     1.0000 0.65423  0.72227  0.23036  Biso   1.000  O
  O249     1.0000 0.68095  0.59292  0.25466  Biso   1.000  O
  O250     1.0000 0.60563  0.78307  0.24214  Biso   1.000  O
  O251     1.0000 0.53793  0.73697  0.25232  Biso   1.000  O
  O252     1.0000 0.57553  0.68147  0.26635  Biso   1.000  O
  C705     1.0000 0.65213  0.49147  0.25184  Biso   1.000  C
  O253     1.0000 0.62893  0.62507  0.23185  Biso   1.000  O
  C706     1.0000 0.64653  0.54577  0.25097  Biso   1.000  C
  O254     1.0000 0.92273  0.93547  0.31413  Biso   1.000  O
  O255     1.0000 0.93273  0.92637  0.18209  Biso   1.000  O
  O256     1.0000 0.89133  0.87747  0.32464  Biso   1.000  O
  O257     1.0000 0.87443  0.88607  0.17114  Biso   1.000  O
  O258     1.0000 0.73553  0.45617  0.17761  Biso   1.000  O
  C707     1.0000 0.76603  0.78717  0.24953  Biso   1.000  C
  C708     1.0000 0.82743  0.84227  0.25023  Biso   1.000  C
  C709     1.0000 0.61383  0.43847  0.24776  Biso   1.000  C
  H397     1.0000 0.58523  0.43747  0.24417  Biso   1.000  H
  O259     1.0000 0.63323  0.41827  0.17784  Biso   1.000  O
  C710     1.0000 0.62233  0.68477  0.26974  Biso   1.000  C
  S12      1.0000 0.48090  0.81418  0.25151  Biso   1.000  S
  C711     1.0000 0.66053  0.38527  0.25397  Biso   1.000  C
  C712     1.0000 0.94093  0.94717  0.25158  Biso   1.000  C
  C713     1.0000 0.66753  0.67087  0.21952  Biso   1.000  C
  N23      1.0000 0.65533  0.74527  0.30302  Biso   1.000  N
  C714     1.0000 0.69313  0.48917  0.25700  Biso   1.000  C
  H398     1.0000 0.71853  0.52407  0.25997  Biso   1.000  H
  C715     1.0000 0.89713  0.94637  0.24706  Biso   1.000  C
  H399     1.0000 0.90483  0.98147  0.24427  Biso   1.000  H
  C716     1.0000 0.61833  0.38587  0.24907  Biso   1.000  C
  H400     1.0000 0.59113  0.35007  0.24647  Biso   1.000  H
  C717     1.0000 0.84003  0.89427  0.24639  Biso   1.000  C
  H401     1.0000 0.81013  0.89517  0.24327  Biso   1.000  H
  N24      1.0000 0.72943  0.67157  0.19607  Biso   1.000  N
  C718     1.0000 0.70843  0.67267  0.20381  Biso   1.000  C
  C719     1.0000 0.69883  0.43777  0.25808  Biso   1.000  C
  H402     1.0000 0.72833  0.43897  0.26157  Biso   1.000  H
  C720     1.0000 0.87173  0.84267  0.25493  Biso   1.000  C
  H403     1.0000 0.86413  0.80787  0.25777  Biso   1.000  H
  C721     1.0000 0.67823  0.70287  0.28258  Biso   1.000  C
  H404     1.0000 0.70533  0.69437  0.27987  Biso   1.000  H
  C722     1.0000 0.92753  0.89477  0.25544  Biso   1.000  C
  H405     1.0000 0.95763  0.89427  0.25857  Biso   1.000  H
  C723     1.0000 0.88793  0.88547  0.17870  Biso   1.000  C
  C724     1.0000 0.68253  0.71947  0.21422  Biso   1.000  C
  H406     1.0000 0.68043  0.75327  0.21597  Biso   1.000  H
  C725     1.0000 0.62933  0.69947  0.27837  Biso   1.000  C
  C726     1.0000 0.69613  0.51007  0.18431  Biso   1.000  C
  C727     1.0000 0.71973  0.61707  0.19233  Biso   1.000  C
  C728     1.0000 0.64953  0.67437  0.22783  Biso   1.000  C
  C729     1.0000 0.68813  0.71807  0.29050  Biso   1.000  C
  H407     1.0000 0.72233  0.72217  0.29317  Biso   1.000  H
  C730     1.0000 0.82633  0.85217  0.31355  Biso   1.000  C
  C731     1.0000 0.70033  0.71837  0.20638  Biso   1.000  C
  H408     1.0000 0.70663  0.74967  0.20287  Biso   1.000  H
  C732     1.0000 0.84583  0.83187  0.18318  Biso   1.000  C
  C733     1.0000 0.85593  0.82797  0.19134  Biso   1.000  C
  H409     1.0000 0.88803  0.86087  0.19397  Biso   1.000  H
  C734     1.0000 0.60293  0.73127  0.30786  Biso   1.000  C
  C735     1.0000 0.64423  0.72727  0.29450  Biso   1.000  C
  C736     1.0000 0.88173  0.89077  0.31770  Biso   1.000  C
  C737     1.0000 0.56213  0.77507  0.24693  Biso   1.000  C
  C738     1.0000 0.45613  0.69417  0.32330  Biso   1.000  C
  C739     1.0000 0.76663  0.72647  0.19193  Biso   1.000  C
  C740     1.0000 0.81473  0.86357  0.30598  Biso   1.000  C
  H410     1.0000 0.84583  0.89597  0.30317  Biso   1.000  H
  C741     1.0000 0.69363  0.62237  0.20905  Biso   1.000  C
  H411     1.0000 0.69663  0.58917  0.20727  Biso   1.000  H
  C742     1.0000 0.67503  0.62377  0.21668  Biso   1.000  C
  H412     1.0000 0.66713  0.59167  0.22007  Biso   1.000  H
  C743     1.0000 0.76563  0.61267  0.18920  Biso   1.000  C
  H413     1.0000 0.80523  0.64527  0.18967  Biso   1.000  H
  C744     1.0000 0.75573  0.55947  0.18510  Biso   1.000  C
  H414     1.0000 0.78843  0.55737  0.18297  Biso   1.000  H
  C745     1.0000 0.55323  0.67297  0.30874  Biso   1.000  C
  H415     1.0000 0.55113  0.64087  0.30577  Biso   1.000  H
  C746     1.0000 0.66263  0.56857  0.19174  Biso   1.000  C
  H416     1.0000 0.62973  0.56997  0.19397  Biso   1.000  H
  C747     1.0000 0.55403  0.76687  0.31679  Biso   1.000  C
  H417     1.0000 0.55363  0.79857  0.31957  Biso   1.000  H
  C748     1.0000 0.76043  0.83007  0.30239  Biso   1.000  C
  H418     1.0000 0.75433  0.84017  0.29727  Biso   1.000  H
  C749     1.0000 0.60253  0.77997  0.31174  Biso   1.000  C
  H419     1.0000 0.63393  0.81987  0.31097  Biso   1.000  H
  C750     1.0000 0.71553  0.78277  0.30612  Biso   1.000  C
  C751     1.0000 0.68553  0.45847  0.17987  Biso   1.000  C
  C752     1.0000 0.58813  0.70937  0.28253  Biso   1.000  C
  H420     1.0000 0.55603  0.70877  0.27977  Biso   1.000  H
  C753     1.0000 0.78153  0.80377  0.31738  Biso   1.000  C
  H421     1.0000 0.78913  0.79427  0.32247  Biso   1.000  H
  C754     1.0000 0.50823  0.66277  0.31380  Biso   1.000  C
  H422     1.0000 0.47673  0.62297  0.31467  Biso   1.000  H
  C755     1.0000 0.75463  0.73147  0.18405  Biso   1.000  C
  H423     1.0000 0.72123  0.69907  0.18157  Biso   1.000  H
  C756     1.0000 0.59253  0.71977  0.29048  Biso   1.000  C
  H424     1.0000 0.56183  0.72197  0.29327  Biso   1.000  H
  C757     1.0000 0.72393  0.76707  0.31395  Biso   1.000  C
  H425     1.0000 0.69283  0.73417  0.31667  Biso   1.000  H
  C758     1.0000 0.65363  0.51687  0.18776  Biso   1.000  C
  H426     1.0000 0.61393  0.48407  0.18747  Biso   1.000  H
  C759     1.0000 0.43633  0.89487  0.24883  Biso   1.000  C
  C760     1.0000 0.81863  0.77587  0.19550  Biso   1.000  C
  H427     1.0000 0.82763  0.77287  0.20087  Biso   1.000  H
  C761     1.0000 0.79373  0.78697  0.17953  Biso   1.000  C
  H428     1.0000 0.78383  0.79187  0.17437  Biso   1.000  H
  O260     1.0000 0.44863  0.94167  0.24208  Biso   1.000  O
  C762     1.0000 0.53993  0.90757  0.24372  Biso   1.000  C
  H429     1.0000 0.55463  0.94737  0.24197  Biso   1.000  H
  C763     1.0000 0.57223  0.87607  0.24264  Biso   1.000  C
  H430     1.0000 0.60903  0.89107  0.23997  Biso   1.000  H
  C764     1.0000 0.54143  0.82107  0.24616  Biso   1.000  C
  C765     1.0000 0.48623  0.87577  0.24753  Biso   1.000  C
  O261     1.0000 0.45243  0.74047  0.32577  Biso   1.000  O
  O262     1.0000 0.41903  0.63897  0.32540  Biso   1.000  O
  C766     1.0000 0.50703  0.70907  0.31778  Biso   1.000  C
  O263     1.0000 0.39933  0.86477  0.25382  Biso   1.000  O
  O264     1.0000 0.49443  0.54197  0.24821  Biso   1.000  O
  C767     1.0000 0.55743  0.86017  0.23803  Biso   1.000  C
  H431     1.0000 0.58403  0.86347  0.23397  Biso   1.000  H
  C768     1.0000 0.51753  0.89117  0.23866  Biso   1.000  C
  H432     1.0000 0.51253  0.91427  0.23467  Biso   1.000  H
  Zn73     1.0000 0.99951  0.34039  0.58841  Biso   1.000  Zn
  Zn74     1.0000 0.93074  0.24249  0.57489  Biso   1.000  Zn
  Zn75     1.0000 0.07301  0.31535  0.57482  Biso   1.000  Zn
  Zn76     1.0000 0.00073  0.21536  0.58857  Biso   1.000  Zn
  Zn77     1.0000 0.26879  0.68113  0.50461  Biso   1.000  Zn
  Zn78     1.0000 0.91943  0.98018  0.66607  Biso   1.000  Zn
  O265     1.0000 0.00149  0.27858  0.58194  Biso   1.000  O
  O266     1.0000 0.12590  0.39911  0.57926  Biso   1.000  O
  O267     1.0000 0.87474  0.26904  0.57835  Biso   1.000  O
  O268     1.0000 0.99030  0.31852  0.59984  Biso   1.000  O
  O269     1.0000 0.92560  0.34729  0.58646  Biso   1.000  O
  O270     1.0000 0.94440  0.26530  0.56369  Biso   1.000  O
  O271     1.0000 0.07375  0.42137  0.58799  Biso   1.000  O
  O272     1.0000 0.88360  0.15590  0.57547  Biso   1.000  O
  O273     1.0000 0.92970  0.13430  0.58565  Biso   1.000  O
  O274     1.0000 0.98520  0.22740  0.59968  Biso   1.000  O
  C769     1.0000 0.17520  0.49400  0.58517  Biso   1.000  C
  O275     1.0000 0.04160  0.33720  0.56518  Biso   1.000  O
  C770     1.0000 0.12090  0.43410  0.58430  Biso   1.000  C
  O276     1.0000 0.73120  0.32060  0.64746  Biso   1.000  O
  O277     1.0000 0.74030  0.33970  0.51542  Biso   1.000  O
  O278     1.0000 0.78920  0.34720  0.65797  Biso   1.000  O
  O279     1.0000 0.78060  0.32170  0.50447  Biso   1.000  O
  O280     1.0000 0.21050  0.61270  0.51094  Biso   1.000  O
  C771     1.0000 0.87950  0.31220  0.58286  Biso   1.000  C
  C772     1.0000 0.82440  0.31850  0.58356  Biso   1.000  C
  C773     1.0000 0.22820  0.50870  0.58109  Biso   1.000  C
  H433     1.0000 0.22920  0.48110  0.57750  Biso   1.000  H
  O281     1.0000 0.24840  0.54830  0.51117  Biso   1.000  O
  C774     1.0000 0.98190  0.27090  0.60307  Biso   1.000  C
  S13      1.0000 0.85249  0.00006  0.58484  Biso   1.000  S
  C775     1.0000 0.28140  0.60860  0.58730  Biso   1.000  C
  C776     1.0000 0.71950  0.32710  0.58491  Biso   1.000  C
  C777     1.0000 0.99580  0.33000  0.55285  Biso   1.000  C
  N25      1.0000 0.92140  0.24340  0.63635  Biso   1.000  N
  C778     1.0000 0.17750  0.53730  0.59033  Biso   1.000  C
  H434     1.0000 0.14260  0.52780  0.59330  Biso   1.000  H
  C779     1.0000 0.72030  0.28410  0.58039  Biso   1.000  C
  H435     1.0000 0.68520  0.25670  0.57760  Biso   1.000  H
  C780     1.0000 0.28080  0.56580  0.58240  Biso   1.000  C
  H436     1.0000 0.31660  0.57440  0.57980  Biso   1.000  H
  C781     1.0000 0.77240  0.27910  0.57972  Biso   1.000  C
  H437     1.0000 0.77150  0.24830  0.57660  Biso   1.000  H
  N26      1.0000 0.99510  0.39120  0.52940  Biso   1.000  N
  C782     1.0000 0.99400  0.36910  0.53714  Biso   1.000  C
  C783     1.0000 0.22890  0.59440  0.59141  Biso   1.000  C
  H438     1.0000 0.22770  0.62270  0.59490  Biso   1.000  H
  C784     1.0000 0.82400  0.36240  0.58826  Biso   1.000  C
  H439     1.0000 0.85880  0.38960  0.59110  Biso   1.000  H
  C785     1.0000 0.96380  0.30870  0.61591  Biso   1.000  C
  H440     1.0000 0.97230  0.34430  0.61320  Biso   1.000  H
  C786     1.0000 0.77190  0.36610  0.58877  Biso   1.000  C
  H441     1.0000 0.77240  0.39670  0.59190  Biso   1.000  H
  C787     1.0000 0.78120  0.33580  0.51203  Biso   1.000  C
  C788     1.0000 0.94720  0.29640  0.54755  Biso   1.000  C
  H442     1.0000 0.91340  0.26050  0.54930  Biso   1.000  H
  C789     1.0000 0.96720  0.26320  0.61170  Biso   1.000  C
  C790     1.0000 0.15660  0.51940  0.51764  Biso   1.000  C
  C791     1.0000 0.04960  0.43600  0.52566  Biso   1.000  C
  C792     1.0000 0.99230  0.30850  0.56116  Biso   1.000  C
  C793     1.0000 0.94860  0.30340  0.62383  Biso   1.000  C
  H443     1.0000 0.94450  0.33350  0.62650  Biso   1.000  H
  C794     1.0000 0.81450  0.30750  0.64688  Biso   1.000  C
  C795     1.0000 0.94830  0.31530  0.53971  Biso   1.000  C
  H444     1.0000 0.91700  0.29030  0.53620  Biso   1.000  H
  C796     1.0000 0.83480  0.34730  0.51651  Biso   1.000  C
  C797     1.0000 0.83870  0.36130  0.52467  Biso   1.000  C
  H445     1.0000 0.80580  0.36050  0.52730  Biso   1.000  H
  C798     1.0000 0.93540  0.20500  0.64119  Biso   1.000  C
  C799     1.0000 0.93940  0.25030  0.62783  Biso   1.000  C
  C800     1.0000 0.77590  0.32430  0.65103  Biso   1.000  C
  C801     1.0000 0.89160  0.12040  0.58026  Biso   1.000  C
  C802     1.0000 0.97250  0.09530  0.65663  Biso   1.000  C
  C803     1.0000 0.94020  0.37350  0.52526  Biso   1.000  C
  C804     1.0000 0.80310  0.28450  0.63931  Biso   1.000  C
  H446     1.0000 0.77070  0.28320  0.63650  Biso   1.000  H
  C805     1.0000 0.04430  0.40460  0.54238  Biso   1.000  C
  H447     1.0000 0.07750  0.44080  0.54060  Biso   1.000  H
  C806     1.0000 0.04290  0.38460  0.55001  Biso   1.000  C
  H448     1.0000 0.07500  0.40880  0.55340  Biso   1.000  H
  C807     1.0000 0.05400  0.48630  0.52253  Biso   1.000  C
  H449     1.0000 0.02140  0.49330  0.52300  Biso   1.000  H
  C808     1.0000 0.10720  0.52960  0.51843  Biso   1.000  C
  H450     1.0000 0.10930  0.56440  0.51630  Biso   1.000  H
  C809     1.0000 0.99370  0.21360  0.64207  Biso   1.000  C
  H451     1.0000 0.02580  0.24360  0.63910  Biso   1.000  H
  C810     1.0000 0.09810  0.42740  0.52507  Biso   1.000  C
  H452     1.0000 0.09670  0.39310  0.52730  Biso   1.000  H
  C811     1.0000 0.89980  0.12050  0.65012  Biso   1.000  C
  H453     1.0000 0.86810  0.08840  0.65290  Biso   1.000  H
  C812     1.0000 0.83660  0.26370  0.63572  Biso   1.000  C
  H454     1.0000 0.82650  0.24750  0.63060  Biso   1.000  H
  C813     1.0000 0.88670  0.15590  0.64507  Biso   1.000  C
  H455     1.0000 0.84680  0.14740  0.64430  Biso   1.000  H
  C814     1.0000 0.88390  0.26610  0.63945  Biso   1.000  C
  C815     1.0000 0.20820  0.56040  0.51320  Biso   1.000  C
  C816     1.0000 0.95730  0.21210  0.61586  Biso   1.000  C
  H456     1.0000 0.95790  0.18060  0.61310  Biso   1.000  H
  C817     1.0000 0.86290  0.31110  0.65071  Biso   1.000  C
  H457     1.0000 0.87240  0.32820  0.65580  Biso   1.000  H
  C818     1.0000 0.00390  0.17880  0.64713  Biso   1.000  C
  H458     1.0000 0.04370  0.18710  0.64800  Biso   1.000  H
  C819     1.0000 0.93520  0.35650  0.51738  Biso   1.000  C
  H459     1.0000 0.96760  0.35550  0.51490  Biso   1.000  H
  C820     1.0000 0.94690  0.20610  0.62381  Biso   1.000  C
  H460     1.0000 0.94470  0.17320  0.62660  Biso   1.000  H
  C821     1.0000 0.89960  0.29020  0.64728  Biso   1.000  C
  H461     1.0000 0.93250  0.29200  0.65000  Biso   1.000  H
  C822     1.0000 0.14980  0.47010  0.52109  Biso   1.000  C
  H462     1.0000 0.18260  0.46320  0.52080  Biso   1.000  H
  C823     1.0000 0.77180  0.87480  0.58216  Biso   1.000  C
  C824     1.0000 0.89080  0.37610  0.52883  Biso   1.000  C
  H463     1.0000 0.89380  0.38810  0.53420  Biso   1.000  H
  C825     1.0000 0.87970  0.34010  0.51286  Biso   1.000  C
  H464     1.0000 0.87480  0.32530  0.50770  Biso   1.000  H
  O282     1.0000 0.72500  0.84030  0.57541  Biso   1.000  O
  C826     1.0000 0.75910  0.96570  0.57705  Biso   1.000  C
  H465     1.0000 0.71930  0.94060  0.57530  Biso   1.000  H
  C827     1.0000 0.79060  0.02950  0.57597  Biso   1.000  C
  H466     1.0000 0.77560  0.05130  0.57330  Biso   1.000  H
  C828     1.0000 0.84560  0.05370  0.57949  Biso   1.000  C
  C829     1.0000 0.79090  0.94380  0.58086  Biso   1.000  C
  O283     1.0000 0.92620  0.04530  0.65910  Biso   1.000  O
  O284     1.0000 0.02770  0.11340  0.65873  Biso   1.000  O
  C830     1.0000 0.95760  0.13130  0.65111  Biso   1.000  C
  O285     1.0000 0.80190  0.86790  0.58715  Biso   1.000  O
  O286     1.0000 0.12470  0.28580  0.58154  Biso   1.000  O
  C831     1.0000 0.80650  0.03060  0.57136  Biso   1.000  C
  H467     1.0000 0.80320  0.05390  0.56730  Biso   1.000  H
  C832     1.0000 0.77550  0.95970  0.57199  Biso   1.000  C
  H468     1.0000 0.75240  0.93160  0.56800  Biso   1.000  H
  Zn79     1.0000 0.66618  0.67372  0.92174  Biso   1.000  Zn
  Zn80     1.0000 0.59741  0.57582  0.90823  Biso   1.000  Zn
  Zn81     1.0000 0.73968  0.64868  0.90815  Biso   1.000  Zn
  Zn82     1.0000 0.66740  0.54869  0.92190  Biso   1.000  Zn
  Zn83     1.0000 0.93546  0.01446  0.83795  Biso   1.000  Zn
  Zn84     1.0000 0.58610  0.31351  0.99940  Biso   1.000  Zn
  O287     1.0000 0.66816  0.61191  0.91527  Biso   1.000  O
  O288     1.0000 0.79257  0.73244  0.91259  Biso   1.000  O
  O289     1.0000 0.54141  0.60237  0.91168  Biso   1.000  O
  O290     1.0000 0.65697  0.65185  0.93317  Biso   1.000  O
  O291     1.0000 0.59227  0.68062  0.91979  Biso   1.000  O
  O292     1.0000 0.61107  0.59863  0.89702  Biso   1.000  O
  O293     1.0000 0.74042  0.75470  0.92132  Biso   1.000  O
  O294     1.0000 0.55027  0.48923  0.90880  Biso   1.000  O
  O295     1.0000 0.59637  0.46763  0.91898  Biso   1.000  O
  O296     1.0000 0.65187  0.56073  0.93301  Biso   1.000  O
  C833     1.0000 0.84187  0.82733  0.91850  Biso   1.000  C
  O297     1.0000 0.70827  0.67053  0.89851  Biso   1.000  O
  C834     1.0000 0.78757  0.76743  0.91763  Biso   1.000  C
  O298     1.0000 0.39787  0.65393  0.98079  Biso   1.000  O
  O299     1.0000 0.40697  0.67303  0.84875  Biso   1.000  O
  O300     1.0000 0.45587  0.68053  0.99130  Biso   1.000  O
  O301     1.0000 0.44727  0.65503  0.83780  Biso   1.000  O
  O302     1.0000 0.87717  0.94603  0.84427  Biso   1.000  O
  C835     1.0000 0.54617  0.64553  0.91619  Biso   1.000  C
  C836     1.0000 0.49107  0.65183  0.91689  Biso   1.000  C
  C837     1.0000 0.89487  0.84203  0.91442  Biso   1.000  C
  H469     1.0000 0.89587  0.81443  0.91083  Biso   1.000  H
  O303     1.0000 0.91507  0.88163  0.84450  Biso   1.000  O
  C838     1.0000 0.64857  0.60423  0.93640  Biso   1.000  C
  S14      1.0000 0.51916  0.33339  0.91818  Biso   1.000  S
  C839     1.0000 0.94807  0.94193  0.92063  Biso   1.000  C
  C840     1.0000 0.38617  0.66043  0.91824  Biso   1.000  C
  C841     1.0000 0.66247  0.66333  0.88618  Biso   1.000  C
  N27      1.0000 0.58807  0.57673  0.96968  Biso   1.000  N
  C842     1.0000 0.84417  0.87063  0.92366  Biso   1.000  C
  H470     1.0000 0.80927  0.86113  0.92663  Biso   1.000  H
  C843     1.0000 0.38697  0.61743  0.91372  Biso   1.000  C
  H471     1.0000 0.35187  0.59003  0.91093  Biso   1.000  H
  C844     1.0000 0.94747  0.89913  0.91573  Biso   1.000  C
  H472     1.0000 0.98327  0.90773  0.91313  Biso   1.000  H
  C845     1.0000 0.43907  0.61243  0.91305  Biso   1.000  C
  H473     1.0000 0.43817  0.58163  0.90993  Biso   1.000  H
  N28      1.0000 0.66177  0.72453  0.86273  Biso   1.000  N
  C846     1.0000 0.66067  0.70243  0.87047  Biso   1.000  C
  C847     1.0000 0.89557  0.92773  0.92474  Biso   1.000  C
  H474     1.0000 0.89437  0.95603  0.92823  Biso   1.000  H
  C848     1.0000 0.49067  0.69573  0.92159  Biso   1.000  C
  H475     1.0000 0.52547  0.72293  0.92443  Biso   1.000  H
  C849     1.0000 0.63047  0.64203  0.94924  Biso   1.000  C
  H476     1.0000 0.63897  0.67763  0.94653  Biso   1.000  H
  C850     1.0000 0.43857  0.69943  0.92210  Biso   1.000  C
  H477     1.0000 0.43907  0.73003  0.92523  Biso   1.000  H
  C851     1.0000 0.44787  0.66913  0.84536  Biso   1.000  C
  C852     1.0000 0.61387  0.62973  0.88088  Biso   1.000  C
  H478     1.0000 0.58007  0.59383  0.88263  Biso   1.000  H
  C853     1.0000 0.63387  0.59653  0.94503  Biso   1.000  C
  C854     1.0000 0.82327  0.85273  0.85097  Biso   1.000  C
  C855     1.0000 0.71627  0.76933  0.85899  Biso   1.000  C
  C856     1.0000 0.65897  0.64183  0.89449  Biso   1.000  C
  C857     1.0000 0.61527  0.63673  0.95716  Biso   1.000  C
  H479     1.0000 0.61117  0.66683  0.95983  Biso   1.000  H
  C858     1.0000 0.48117  0.64083  0.98021  Biso   1.000  C
  C859     1.0000 0.61497  0.64863  0.87304  Biso   1.000  C
  H480     1.0000 0.58367  0.62363  0.86953  Biso   1.000  H
  C860     1.0000 0.50147  0.68063  0.84984  Biso   1.000  C
  C861     1.0000 0.50537  0.69463  0.85800  Biso   1.000  C
  H481     1.0000 0.47247  0.69383  0.86063  Biso   1.000  H
  C862     1.0000 0.60207  0.53833  0.97452  Biso   1.000  C
  C863     1.0000 0.60607  0.58363  0.96116  Biso   1.000  C
  C864     1.0000 0.44257  0.65763  0.98436  Biso   1.000  C
  C865     1.0000 0.55827  0.45373  0.91359  Biso   1.000  C
  C866     1.0000 0.63917  0.42863  0.98996  Biso   1.000  C
  C867     1.0000 0.60687  0.70683  0.85859  Biso   1.000  C
  C868     1.0000 0.46977  0.61783  0.97264  Biso   1.000  C
  H482     1.0000 0.43737  0.61653  0.96983  Biso   1.000  H
  C869     1.0000 0.71097  0.73793  0.87571  Biso   1.000  C
  H483     1.0000 0.74417  0.77413  0.87393  Biso   1.000  H
  C870     1.0000 0.70957  0.71793  0.88334  Biso   1.000  C
  H484     1.0000 0.74167  0.74213  0.88673  Biso   1.000  H
  C871     1.0000 0.72067  0.81963  0.85586  Biso   1.000  C
  H485     1.0000 0.68807  0.82663  0.85633  Biso   1.000  H
  C872     1.0000 0.77387  0.86293  0.85176  Biso   1.000  C
  H486     1.0000 0.77597  0.89773  0.84963  Biso   1.000  H
  C873     1.0000 0.66037  0.54693  0.97540  Biso   1.000  C
  H487     1.0000 0.69247  0.57693  0.97243  Biso   1.000  H
  C874     1.0000 0.76477  0.76073  0.85840  Biso   1.000  C
  H488     1.0000 0.76337  0.72643  0.86063  Biso   1.000  H
  C875     1.0000 0.56647  0.45383  0.98345  Biso   1.000  C
  H489     1.0000 0.53477  0.42173  0.98623  Biso   1.000  H
  C876     1.0000 0.50327  0.59703  0.96905  Biso   1.000  C
  H490     1.0000 0.49317  0.58083  0.96393  Biso   1.000  H
  C877     1.0000 0.55337  0.48923  0.97840  Biso   1.000  C
  H491     1.0000 0.51347  0.48073  0.97763  Biso   1.000  H
  C878     1.0000 0.55057  0.59943  0.97278  Biso   1.000  C
  C879     1.0000 0.87487  0.89373  0.84653  Biso   1.000  C
  C880     1.0000 0.62397  0.54543  0.94919  Biso   1.000  C
  H492     1.0000 0.62457  0.51393  0.94643  Biso   1.000  H
  C881     1.0000 0.52957  0.64443  0.98404  Biso   1.000  C
  H493     1.0000 0.53907  0.66153  0.98913  Biso   1.000  H
  C882     1.0000 0.67057  0.51213  0.98046  Biso   1.000  C
  H494     1.0000 0.71037  0.52043  0.98133  Biso   1.000  H
  C883     1.0000 0.60187  0.68983  0.85071  Biso   1.000  C
  H495     1.0000 0.63427  0.68883  0.84823  Biso   1.000  H
  C884     1.0000 0.61357  0.53943  0.95714  Biso   1.000  C
  H496     1.0000 0.61137  0.50653  0.95993  Biso   1.000  H
  C885     1.0000 0.56627  0.62353  0.98061  Biso   1.000  C
  H497     1.0000 0.59917  0.62533  0.98333  Biso   1.000  H
  C886     1.0000 0.81647  0.80343  0.85442  Biso   1.000  C
  H498     1.0000 0.84927  0.79653  0.85413  Biso   1.000  H
  C887     1.0000 0.43847  0.20813  0.91549  Biso   1.000  C
  C888     1.0000 0.55747  0.70943  0.86216  Biso   1.000  C
  H499     1.0000 0.56047  0.72143  0.86753  Biso   1.000  H
  C889     1.0000 0.54637  0.67343  0.84619  Biso   1.000  C
  H500     1.0000 0.54147  0.65863  0.84103  Biso   1.000  H
  O304     1.0000 0.39167  0.17363  0.90874  Biso   1.000  O
  C890     1.0000 0.42577  0.29903  0.91038  Biso   1.000  C
  H501     1.0000 0.38597  0.27393  0.90863  Biso   1.000  H
  C891     1.0000 0.45727  0.36283  0.90930  Biso   1.000  C
  H502     1.0000 0.44227  0.38463  0.90663  Biso   1.000  H
  C892     1.0000 0.51227  0.38703  0.91282  Biso   1.000  C
  C893     1.0000 0.45757  0.27713  0.91419  Biso   1.000  C
  O305     1.0000 0.59287  0.37863  0.99243  Biso   1.000  O
  O306     1.0000 0.69437  0.44673  0.99206  Biso   1.000  O
  C894     1.0000 0.62427  0.46463  0.98444  Biso   1.000  C
  O307     1.0000 0.46857  0.20123  0.92048  Biso   1.000  O
  O308     1.0000 0.79137  0.61913  0.91487  Biso   1.000  O
  C895     1.0000 0.47317  0.36393  0.90469  Biso   1.000  C
  H503     1.0000 0.46987  0.38723  0.90063  Biso   1.000  H
  C896     1.0000 0.44217  0.29303  0.90532  Biso   1.000  C
  H504     1.0000 0.41907  0.26493  0.90133  Biso   1.000  H
  Zn85     1.0000 0.33284  0.00706  0.25508  Biso   1.000  Zn
  Zn86     1.0000 0.26407  0.90916  0.24156  Biso   1.000  Zn
  Zn87     1.0000 0.40634  0.98202  0.24148  Biso   1.000  Zn
  Zn88     1.0000 0.33406  0.88203  0.25523  Biso   1.000  Zn
  Zn89     1.0000 0.60212  0.34780  0.17128  Biso   1.000  Zn
  Zn90     1.0000 0.25276  0.64685  0.33273  Biso   1.000  Zn
  O309     1.0000 0.33482  0.94525  0.24860  Biso   1.000  O
  O310     1.0000 0.45923  0.06578  0.24593  Biso   1.000  O
  O311     1.0000 0.20807  0.93571  0.24502  Biso   1.000  O
  O312     1.0000 0.32363  0.98519  0.26651  Biso   1.000  O
  O313     1.0000 0.25893  0.01396  0.25313  Biso   1.000  O
  O314     1.0000 0.27773  0.93197  0.23036  Biso   1.000  O
  O315     1.0000 0.40708  0.08804  0.25466  Biso   1.000  O
  O316     1.0000 0.21693  0.82257  0.24214  Biso   1.000  O
  O317     1.0000 0.26303  0.80097  0.25232  Biso   1.000  O
  O318     1.0000 0.31853  0.89407  0.26635  Biso   1.000  O
  C897     1.0000 0.50853  0.16067  0.25184  Biso   1.000  C
  O319     1.0000 0.37493  0.00387  0.23185  Biso   1.000  O
  C898     1.0000 0.45423  0.10077  0.25097  Biso   1.000  C
  O320     1.0000 0.06453  0.98727  0.31413  Biso   1.000  O
  O321     1.0000 0.07363  0.00637  0.18209  Biso   1.000  O
  O322     1.0000 0.12253  0.01387  0.32464  Biso   1.000  O
  O323     1.0000 0.11393  0.98837  0.17114  Biso   1.000  O
  O324     1.0000 0.54383  0.27937  0.17761  Biso   1.000  O
  C899     1.0000 0.21283  0.97887  0.24953  Biso   1.000  C
  C900     1.0000 0.15773  0.98517  0.25023  Biso   1.000  C
  C901     1.0000 0.56153  0.17537  0.24776  Biso   1.000  C
  H505     1.0000 0.56253  0.14777  0.24417  Biso   1.000  H
  O325     1.0000 0.58173  0.21497  0.17784  Biso   1.000  O
  C902     1.0000 0.31523  0.93757  0.26974  Biso   1.000  C
  S15      1.0000 0.18582  0.66673  0.25151  Biso   1.000  S
  C903     1.0000 0.61473  0.27527  0.25397  Biso   1.000  C
  C904     1.0000 0.05283  0.99377  0.25158  Biso   1.000  C
  C905     1.0000 0.32913  0.99667  0.21952  Biso   1.000  C
  N29      1.0000 0.25473  0.91007  0.30302  Biso   1.000  N
  C906     1.0000 0.51083  0.20397  0.25700  Biso   1.000  C
  H506     1.0000 0.47593  0.19447  0.25997  Biso   1.000  H
  C907     1.0000 0.05363  0.95077  0.24706  Biso   1.000  C
  H507     1.0000 0.01853  0.92337  0.24427  Biso   1.000  H
  C908     1.0000 0.61413  0.23247  0.24907  Biso   1.000  C
  H508     1.0000 0.64993  0.24107  0.24647  Biso   1.000  H
  C909     1.0000 0.10573  0.94577  0.24639  Biso   1.000  C
  H509     1.0000 0.10483  0.91497  0.24327  Biso   1.000  H
  N30      1.0000 0.32843  0.05787  0.19607  Biso   1.000  N
  C910     1.0000 0.32733  0.03577  0.20381  Biso   1.000  C
  C911     1.0000 0.56223  0.26107  0.25808  Biso   1.000  C
  H510     1.0000 0.56103  0.28937  0.26157  Biso   1.000  H
  C912     1.0000 0.15733  0.02907  0.25493  Biso   1.000  C
  H511     1.0000 0.19213  0.05627  0.25777  Biso   1.000  H
  C913     1.0000 0.29713  0.97537  0.28258  Biso   1.000  C
  H512     1.0000 0.30563  0.01097  0.27987  Biso   1.000  H
  C914     1.0000 0.10523  0.03277  0.25544  Biso   1.000  C
  H513     1.0000 0.10573  0.06337  0.25857  Biso   1.000  H
  C915     1.0000 0.11453  0.00247  0.17870  Biso   1.000  C
  C916     1.0000 0.28053  0.96307  0.21422  Biso   1.000  C
  H514     1.0000 0.24673  0.92717  0.21597  Biso   1.000  H
  C917     1.0000 0.30053  0.92987  0.27837  Biso   1.000  C
  C918     1.0000 0.48993  0.18607  0.18431  Biso   1.000  C
  C919     1.0000 0.38293  0.10267  0.19233  Biso   1.000  C
  C920     1.0000 0.32563  0.97517  0.22783  Biso   1.000  C
  C921     1.0000 0.28193  0.97007  0.29050  Biso   1.000  C
  H515     1.0000 0.27783  0.00017  0.29317  Biso   1.000  H
  C922     1.0000 0.14783  0.97417  0.31355  Biso   1.000  C
  C923     1.0000 0.28163  0.98197  0.20638  Biso   1.000  C
  H516     1.0000 0.25033  0.95697  0.20287  Biso   1.000  H
  C924     1.0000 0.16813  0.01397  0.18318  Biso   1.000  C
  C925     1.0000 0.17203  0.02797  0.19134  Biso   1.000  C
  H517     1.0000 0.13913  0.02717  0.19397  Biso   1.000  H
  C926     1.0000 0.26873  0.87167  0.30786  Biso   1.000  C
  C927     1.0000 0.27273  0.91697  0.29450  Biso   1.000  C
  C928     1.0000 0.10923  0.99097  0.31770  Biso   1.000  C
  C929     1.0000 0.22493  0.78707  0.24693  Biso   1.000  C
  C930     1.0000 0.30583  0.76197  0.32330  Biso   1.000  C
  C931     1.0000 0.27353  0.04017  0.19193  Biso   1.000  C
  C932     1.0000 0.13643  0.95117  0.30598  Biso   1.000  C
  H518     1.0000 0.10403  0.94987  0.30317  Biso   1.000  H
  C933     1.0000 0.37763  0.07127  0.20905  Biso   1.000  C
  H519     1.0000 0.41083  0.10747  0.20727  Biso   1.000  H
  C934     1.0000 0.37623  0.05127  0.21668  Biso   1.000  C
  H520     1.0000 0.40833  0.07547  0.22007  Biso   1.000  H
  C935     1.0000 0.38733  0.15297  0.18920  Biso   1.000  C
  H521     1.0000 0.35473  0.15997  0.18967  Biso   1.000  H
  C936     1.0000 0.44053  0.19627  0.18510  Biso   1.000  C
  H522     1.0000 0.44263  0.23107  0.18297  Biso   1.000  H
  C937     1.0000 0.32703  0.88027  0.30874  Biso   1.000  C
  H523     1.0000 0.35913  0.91027  0.30577  Biso   1.000  H
  C938     1.0000 0.43143  0.09407  0.19174  Biso   1.000  C
  H524     1.0000 0.43003  0.05977  0.19397  Biso   1.000  H
  C939     1.0000 0.23313  0.78717  0.31679  Biso   1.000  C
  H525     1.0000 0.20143  0.75507  0.31957  Biso   1.000  H
  C940     1.0000 0.16993  0.93037  0.30239  Biso   1.000  C
  H526     1.0000 0.15983  0.91417  0.29727  Biso   1.000  H
  C941     1.0000 0.22003  0.82257  0.31174  Biso   1.000  C
  H527     1.0000 0.18013  0.81407  0.31097  Biso   1.000  H
  C942     1.0000 0.21723  0.93277  0.30612  Biso   1.000  C
  C943     1.0000 0.54153  0.22707  0.17987  Biso   1.000  C
  C944     1.0000 0.29063  0.87877  0.28253  Biso   1.000  C
  H528     1.0000 0.29123  0.84727  0.27977  Biso   1.000  H
  C945     1.0000 0.19623  0.97777  0.31738  Biso   1.000  C
  H529     1.0000 0.20573  0.99487  0.32247  Biso   1.000  H
  C946     1.0000 0.33723  0.84547  0.31380  Biso   1.000  C
  H530     1.0000 0.37703  0.85377  0.31467  Biso   1.000  H
  C947     1.0000 0.26853  0.02317  0.18405  Biso   1.000  C
  H531     1.0000 0.30093  0.02217  0.18157  Biso   1.000  H
  C948     1.0000 0.28023  0.87277  0.29048  Biso   1.000  C
  H532     1.0000 0.27803  0.83987  0.29327  Biso   1.000  H
  C949     1.0000 0.23293  0.95687  0.31395  Biso   1.000  C
  H533     1.0000 0.26583  0.95867  0.31667  Biso   1.000  H
  C950     1.0000 0.48313  0.13677  0.18776  Biso   1.000  C
  H534     1.0000 0.51593  0.12987  0.18747  Biso   1.000  H
  C951     1.0000 0.10513  0.54147  0.24883  Biso   1.000  C
  C952     1.0000 0.22413  0.04277  0.19550  Biso   1.000  C
  H535     1.0000 0.22713  0.05477  0.20087  Biso   1.000  H
  C953     1.0000 0.21303  0.00677  0.17953  Biso   1.000  C
  H536     1.0000 0.20813  0.99197  0.17437  Biso   1.000  H
  O326     1.0000 0.05833  0.50697  0.24208  Biso   1.000  O
  C954     1.0000 0.09243  0.63237  0.24372  Biso   1.000  C
  H537     1.0000 0.05263  0.60727  0.24197  Biso   1.000  H
  C955     1.0000 0.12393  0.69617  0.24264  Biso   1.000  C
  H538     1.0000 0.10893  0.71797  0.23997  Biso   1.000  H
  C956     1.0000 0.17893  0.72037  0.24616  Biso   1.000  C
  C957     1.0000 0.12423  0.61047  0.24753  Biso   1.000  C
  O327     1.0000 0.25953  0.71197  0.32577  Biso   1.000  O
  O328     1.0000 0.36103  0.78007  0.32540  Biso   1.000  O
  C958     1.0000 0.29093  0.79797  0.31778  Biso   1.000  C
  O329     1.0000 0.13523  0.53457  0.25382  Biso   1.000  O
  O330     1.0000 0.45803  0.95247  0.24821  Biso   1.000  O
  C959     1.0000 0.13983  0.69727  0.23803  Biso   1.000  C
  H539     1.0000 0.13653  0.72057  0.23397  Biso   1.000  H
  C960     1.0000 0.10883  0.62637  0.23866  Biso   1.000  C
  H540     1.0000 0.08573  0.59827  0.23467  Biso   1.000  H
  Zn91     1.0000 0.65961  0.65912  0.58841  Biso   1.000  Zn
  Zn92     1.0000 0.75751  0.68825  0.57489  Biso   1.000  Zn
  Zn93     1.0000 0.68465  0.75766  0.57482  Biso   1.000  Zn
  Zn94     1.0000 0.78464  0.78537  0.58857  Biso   1.000  Zn
  Zn95     1.0000 0.31887  0.58766  0.50461  Biso   1.000  Zn
  Zn96     1.0000 0.01982  0.93925  0.66607  Biso   1.000  Zn
  O331     1.0000 0.72142  0.72291  0.58194  Biso   1.000  O
  O332     1.0000 0.60089  0.72679  0.57926  Biso   1.000  O
  O333     1.0000 0.73096  0.60570  0.57835  Biso   1.000  O
  O334     1.0000 0.68148  0.67178  0.59984  Biso   1.000  O
  O335     1.0000 0.65271  0.57831  0.58646  Biso   1.000  O
  O336     1.0000 0.73470  0.67910  0.56369  Biso   1.000  O
  O337     1.0000 0.57863  0.65238  0.58799  Biso   1.000  O
  O338     1.0000 0.84410  0.72770  0.57547  Biso   1.000  O
  O339     1.0000 0.86570  0.79540  0.58565  Biso   1.000  O
  O340     1.0000 0.77260  0.75780  0.59968  Biso   1.000  O
  C961     1.0000 0.50600  0.68120  0.58517  Biso   1.000  C
  O341     1.0000 0.66280  0.70440  0.56518  Biso   1.000  O
  C962     1.0000 0.56590  0.68680  0.58430  Biso   1.000  C
  O342     1.0000 0.67940  0.41060  0.64746  Biso   1.000  O
  O343     1.0000 0.66030  0.40060  0.51542  Biso   1.000  O
  O344     1.0000 0.65280  0.44200  0.65797  Biso   1.000  O
  O345     1.0000 0.67830  0.45890  0.50447  Biso   1.000  O
  O346     1.0000 0.38730  0.59780  0.51094  Biso   1.000  O
  C963     1.0000 0.68780  0.56730  0.58286  Biso   1.000  C
  C964     1.0000 0.68150  0.50590  0.58356  Biso   1.000  C
  C965     1.0000 0.49130  0.71950  0.58109  Biso   1.000  C
  H541     1.0000 0.51890  0.74810  0.57750  Biso   1.000  H
  O347     1.0000 0.45170  0.70010  0.51117  Biso   1.000  O
  C966     1.0000 0.72910  0.71100  0.60307  Biso   1.000  C
  S16      1.0000 0.99994  0.85243  0.58484  Biso   1.000  S
  C967     1.0000 0.39140  0.67280  0.58730  Biso   1.000  C
  C968     1.0000 0.67290  0.39240  0.58491  Biso   1.000  C
  C969     1.0000 0.67000  0.66580  0.55285  Biso   1.000  C
  N31      1.0000 0.75660  0.67800  0.63635  Biso   1.000  N
  C970     1.0000 0.46270  0.64020  0.59033  Biso   1.000  C
  H542     1.0000 0.47220  0.61480  0.59330  Biso   1.000  H
  C971     1.0000 0.71590  0.43620  0.58039  Biso   1.000  C
  H543     1.0000 0.74330  0.42850  0.57760  Biso   1.000  H
  C972     1.0000 0.43420  0.71500  0.58240  Biso   1.000  C
  H544     1.0000 0.42560  0.74220  0.57980  Biso   1.000  H
  C973     1.0000 0.72090  0.49330  0.57972  Biso   1.000  C
  H545     1.0000 0.75170  0.52320  0.57660  Biso   1.000  H
  N32      1.0000 0.60880  0.60390  0.52940  Biso   1.000  N
  C974     1.0000 0.63090  0.62490  0.53714  Biso   1.000  C
  C975     1.0000 0.40560  0.63450  0.59141  Biso   1.000  C
  H546     1.0000 0.37730  0.60500  0.59490  Biso   1.000  H
  C976     1.0000 0.63760  0.46160  0.58826  Biso   1.000  C
  H547     1.0000 0.61040  0.46920  0.59110  Biso   1.000  H
  C977     1.0000 0.69130  0.65510  0.61591  Biso   1.000  C
  H548     1.0000 0.65570  0.62800  0.61320  Biso   1.000  H
  C978     1.0000 0.63390  0.40580  0.58877  Biso   1.000  C
  H549     1.0000 0.60330  0.37570  0.59190  Biso   1.000  H
  C979     1.0000 0.66420  0.44540  0.51203  Biso   1.000  C
  C980     1.0000 0.70360  0.65080  0.54755  Biso   1.000  C
  H550     1.0000 0.73950  0.65290  0.54930  Biso   1.000  H
  C981     1.0000 0.73680  0.70400  0.61170  Biso   1.000  C
  C982     1.0000 0.48060  0.63720  0.51764  Biso   1.000  C
  C983     1.0000 0.56400  0.61360  0.52566  Biso   1.000  C
  C984     1.0000 0.69150  0.68380  0.56116  Biso   1.000  C
  C985     1.0000 0.69660  0.64520  0.62383  Biso   1.000  C
  H551     1.0000 0.66650  0.61100  0.62650  Biso   1.000  H
  C986     1.0000 0.69250  0.50700  0.64688  Biso   1.000  C
  C987     1.0000 0.68470  0.63300  0.53971  Biso   1.000  C
  H552     1.0000 0.70970  0.62670  0.53620  Biso   1.000  H
  C988     1.0000 0.65270  0.48750  0.51651  Biso   1.000  C
  C989     1.0000 0.63870  0.47740  0.52467  Biso   1.000  C
  H553     1.0000 0.63950  0.44530  0.52730  Biso   1.000  H
  C990     1.0000 0.79500  0.73040  0.64119  Biso   1.000  C
  C991     1.0000 0.74970  0.68910  0.62783  Biso   1.000  C
  C992     1.0000 0.67570  0.45160  0.65103  Biso   1.000  C
  C993     1.0000 0.87960  0.77120  0.58026  Biso   1.000  C
  C994     1.0000 0.90470  0.87720  0.65663  Biso   1.000  C
  C995     1.0000 0.62650  0.56670  0.52526  Biso   1.000  C
  C996     1.0000 0.71550  0.51860  0.63931  Biso   1.000  C
  H554     1.0000 0.71680  0.48750  0.63650  Biso   1.000  H
  C997     1.0000 0.59540  0.63970  0.54238  Biso   1.000  C
  H555     1.0000 0.55920  0.63670  0.54060  Biso   1.000  H
  C998     1.0000 0.61540  0.65830  0.55001  Biso   1.000  C
  H556     1.0000 0.59120  0.66620  0.55340  Biso   1.000  H
  C999     1.0000 0.51370  0.56770  0.52253  Biso   1.000  C
  H557     1.0000 0.50670  0.52810  0.52300  Biso   1.000  H
  C1000    1.0000 0.47040  0.57760  0.51843  Biso   1.000  C
  H558     1.0000 0.43560  0.54490  0.51630  Biso   1.000  H
  C1001    1.0000 0.78640  0.78010  0.64207  Biso   1.000  C
  H559     1.0000 0.75640  0.78220  0.63910  Biso   1.000  H
  C1002    1.0000 0.57260  0.67070  0.52507  Biso   1.000  C
  H560     1.0000 0.60690  0.70360  0.52730  Biso   1.000  H
  C1003    1.0000 0.87950  0.77930  0.65012  Biso   1.000  C
  H561     1.0000 0.91160  0.77970  0.65290  Biso   1.000  H
  C1004    1.0000 0.73630  0.57290  0.63572  Biso   1.000  C
  H562     1.0000 0.75250  0.57900  0.63060  Biso   1.000  H
  C1005    1.0000 0.84410  0.73080  0.64507  Biso   1.000  C
  H563     1.0000 0.85260  0.69940  0.64430  Biso   1.000  H
  C1006    1.0000 0.73390  0.61780  0.63945  Biso   1.000  C
  C1007    1.0000 0.43960  0.64780  0.51320  Biso   1.000  C
  C1008    1.0000 0.78790  0.74520  0.61586  Biso   1.000  C
  H564     1.0000 0.81940  0.77730  0.61310  Biso   1.000  H
  C1009    1.0000 0.68890  0.55180  0.65071  Biso   1.000  C
  H565     1.0000 0.67180  0.54420  0.65580  Biso   1.000  H
  C1010    1.0000 0.82120  0.82510  0.64713  Biso   1.000  C
  H566     1.0000 0.81290  0.85660  0.64800  Biso   1.000  H
  C1011    1.0000 0.64350  0.57870  0.51738  Biso   1.000  C
  H567     1.0000 0.64450  0.61210  0.51490  Biso   1.000  H
  C1012    1.0000 0.79390  0.74080  0.62381  Biso   1.000  C
  H568     1.0000 0.82680  0.77150  0.62660  Biso   1.000  H
  C1013    1.0000 0.70980  0.60940  0.64728  Biso   1.000  C
  H569     1.0000 0.70800  0.64050  0.65000  Biso   1.000  H
  C1014    1.0000 0.52990  0.67970  0.52109  Biso   1.000  C
  H570     1.0000 0.53680  0.71940  0.52080  Biso   1.000  H
  C1015    1.0000 0.12520  0.89700  0.58216  Biso   1.000  C
  C1016    1.0000 0.62390  0.51470  0.52883  Biso   1.000  C
  H571     1.0000 0.61190  0.50570  0.53420  Biso   1.000  H
  C1017    1.0000 0.65990  0.53960  0.51286  Biso   1.000  C
  H572     1.0000 0.67470  0.54950  0.50770  Biso   1.000  H
  O348     1.0000 0.15970  0.88470  0.57541  Biso   1.000  O
  C1018    1.0000 0.03430  0.79340  0.57705  Biso   1.000  C
  H573     1.0000 0.05940  0.77870  0.57530  Biso   1.000  H
  C1019    1.0000 0.97050  0.76110  0.57597  Biso   1.000  C
  H574     1.0000 0.94870  0.72430  0.57330  Biso   1.000  H
  C1020    1.0000 0.94630  0.79190  0.57949  Biso   1.000  C
  C1021    1.0000 0.05620  0.84710  0.58086  Biso   1.000  C
  O349     1.0000 0.95470  0.88090  0.65910  Biso   1.000  O
  O350     1.0000 0.88660  0.91430  0.65873  Biso   1.000  O
  C1022    1.0000 0.86870  0.82630  0.65111  Biso   1.000  C
  O351     1.0000 0.13210  0.93400  0.58715  Biso   1.000  O
  O352     1.0000 0.71420  0.83890  0.58154  Biso   1.000  O
  C1023    1.0000 0.96940  0.77590  0.57136  Biso   1.000  C
  H575     1.0000 0.94610  0.74930  0.56730  Biso   1.000  H
  C1024    1.0000 0.04030  0.81580  0.57199  Biso   1.000  C
  H576     1.0000 0.06840  0.82080  0.56800  Biso   1.000  H
  Zn97     1.0000 0.32628  0.99245  0.92174  Biso   1.000  Zn
  Zn98     1.0000 0.42418  0.02158  0.90823  Biso   1.000  Zn
  Zn99     1.0000 0.35132  0.09099  0.90815  Biso   1.000  Zn
  Zn100    1.0000 0.45131  0.11870  0.92190  Biso   1.000  Zn
  Zn101    1.0000 0.98554  0.92099  0.83795  Biso   1.000  Zn
  Zn102    1.0000 0.68649  0.27258  0.99940  Biso   1.000  Zn
  O353     1.0000 0.38809  0.05624  0.91527  Biso   1.000  O
  O354     1.0000 0.26756  0.06012  0.91259  Biso   1.000  O
  O355     1.0000 0.39763  0.93903  0.91168  Biso   1.000  O
  O356     1.0000 0.34815  0.00511  0.93317  Biso   1.000  O
  O357     1.0000 0.31938  0.91164  0.91979  Biso   1.000  O
  O358     1.0000 0.40137  0.01243  0.89702  Biso   1.000  O
  O359     1.0000 0.24530  0.98571  0.92132  Biso   1.000  O
  O360     1.0000 0.51077  0.06103  0.90880  Biso   1.000  O
  O361     1.0000 0.53237  0.12873  0.91898  Biso   1.000  O
  O362     1.0000 0.43927  0.09113  0.93301  Biso   1.000  O
  C1025    1.0000 0.17267  0.01453  0.91850  Biso   1.000  C
  O363     1.0000 0.32947  0.03773  0.89851  Biso   1.000  O
  C1026    1.0000 0.23257  0.02013  0.91763  Biso   1.000  C
  O364     1.0000 0.34607  0.74393  0.98079  Biso   1.000  O
  O365     1.0000 0.32697  0.73393  0.84875  Biso   1.000  O
  O366     1.0000 0.31947  0.77533  0.99130  Biso   1.000  O
  O367     1.0000 0.34497  0.79223  0.83780  Biso   1.000  O
  O368     1.0000 0.05397  0.93113  0.84427  Biso   1.000  O
  C1027    1.0000 0.35447  0.90063  0.91619  Biso   1.000  C
  C1028    1.0000 0.34817  0.83923  0.91689  Biso   1.000  C
  C1029    1.0000 0.15797  0.05283  0.91442  Biso   1.000  C
  H577     1.0000 0.18557  0.08143  0.91083  Biso   1.000  H
  O369     1.0000 0.11837  0.03343  0.84450  Biso   1.000  O
  C1030    1.0000 0.39577  0.04433  0.93640  Biso   1.000  C
  S17      1.0000 0.66661  0.18576  0.91818  Biso   1.000  S
  C1031    1.0000 0.05807  0.00613  0.92063  Biso   1.000  C
  C1032    1.0000 0.33957  0.72573  0.91824  Biso   1.000  C
  C1033    1.0000 0.33667  0.99913  0.88618  Biso   1.000  C
  N33      1.0000 0.42327  0.01133  0.96968  Biso   1.000  N
  C1034    1.0000 0.12937  0.97353  0.92366  Biso   1.000  C
  H578     1.0000 0.13887  0.94813  0.92663  Biso   1.000  H
  C1035    1.0000 0.38257  0.76953  0.91372  Biso   1.000  C
  H579     1.0000 0.40997  0.76183  0.91093  Biso   1.000  H
  C1036    1.0000 0.10087  0.04833  0.91573  Biso   1.000  C
  H580     1.0000 0.09227  0.07553  0.91313  Biso   1.000  H
  C1037    1.0000 0.38757  0.82663  0.91305  Biso   1.000  C
  H581     1.0000 0.41837  0.85653  0.90993  Biso   1.000  H
  N34      1.0000 0.27547  0.93723  0.86273  Biso   1.000  N
  C1038    1.0000 0.29757  0.95823  0.87047  Biso   1.000  C
  C1039    1.0000 0.07227  0.96783  0.92474  Biso   1.000  C
  H582     1.0000 0.04397  0.93833  0.92823  Biso   1.000  H
  C1040    1.0000 0.30427  0.79493  0.92159  Biso   1.000  C
  H583     1.0000 0.27707  0.80253  0.92443  Biso   1.000  H
  C1041    1.0000 0.35797  0.98843  0.94924  Biso   1.000  C
  H584     1.0000 0.32237  0.96133  0.94653  Biso   1.000  H
  C1042    1.0000 0.30057  0.73913  0.92210  Biso   1.000  C
  H585     1.0000 0.26997  0.70903  0.92523  Biso   1.000  H
  C1043    1.0000 0.33087  0.77873  0.84536  Biso   1.000  C
  C1044    1.0000 0.37027  0.98413  0.88088  Biso   1.000  C
  H586     1.0000 0.40617  0.98623  0.88263  Biso   1.000  H
  C1045    1.0000 0.40347  0.03733  0.94503  Biso   1.000  C
  C1046    1.0000 0.14727  0.97053  0.85097  Biso   1.000  C
  C1047    1.0000 0.23067  0.94693  0.85899  Biso   1.000  C
  C1048    1.0000 0.35817  0.01713  0.89449  Biso   1.000  C
  C1049    1.0000 0.36327  0.97853  0.95716  Biso   1.000  C
  H587     1.0000 0.33317  0.94433  0.95983  Biso   1.000  H
  C1050    1.0000 0.35917  0.84033  0.98021  Biso   1.000  C
  C1051    1.0000 0.35137  0.96633  0.87304  Biso   1.000  C
  H588     1.0000 0.37637  0.96003  0.86953  Biso   1.000  H
  C1052    1.0000 0.31937  0.82083  0.84984  Biso   1.000  C
  C1053    1.0000 0.30537  0.81073  0.85800  Biso   1.000  C
  H589     1.0000 0.30617  0.77863  0.86063  Biso   1.000  H
  C1054    1.0000 0.46167  0.06373  0.97452  Biso   1.000  C
  C1055    1.0000 0.41637  0.02243  0.96116  Biso   1.000  C
  C1056    1.0000 0.34237  0.78493  0.98436  Biso   1.000  C
  C1057    1.0000 0.54627  0.10453  0.91359  Biso   1.000  C
  C1058    1.0000 0.57137  0.21053  0.98996  Biso   1.000  C
  C1059    1.0000 0.29317  0.90003  0.85859  Biso   1.000  C
  C1060    1.0000 0.38217  0.85193  0.97264  Biso   1.000  C
  H590     1.0000 0.38347  0.82083  0.96983  Biso   1.000  H
  C1061    1.0000 0.26207  0.97303  0.87571  Biso   1.000  C
  H591     1.0000 0.22587  0.97003  0.87393  Biso   1.000  H
  C1062    1.0000 0.28207  0.99163  0.88334  Biso   1.000  C
  H592     1.0000 0.25787  0.99953  0.88673  Biso   1.000  H
  C1063    1.0000 0.18037  0.90103  0.85586  Biso   1.000  C
  H593     1.0000 0.17337  0.86143  0.85633  Biso   1.000  H
  C1064    1.0000 0.13707  0.91093  0.85176  Biso   1.000  C
  H594     1.0000 0.10227  0.87823  0.84963  Biso   1.000  H
  C1065    1.0000 0.45307  0.11343  0.97540  Biso   1.000  C
  H595     1.0000 0.42307  0.11553  0.97243  Biso   1.000  H
  C1066    1.0000 0.23927  0.00403  0.85840  Biso   1.000  C
  H596     1.0000 0.27357  0.03693  0.86063  Biso   1.000  H
  C1067    1.0000 0.54617  0.11263  0.98345  Biso   1.000  C
  H597     1.0000 0.57827  0.11303  0.98623  Biso   1.000  H
  C1068    1.0000 0.40297  0.90623  0.96905  Biso   1.000  C
  H598     1.0000 0.41917  0.91233  0.96393  Biso   1.000  H
  C1069    1.0000 0.51077  0.06413  0.97840  Biso   1.000  C
  H599     1.0000 0.51927  0.03273  0.97763  Biso   1.000  H
  C1070    1.0000 0.40057  0.95113  0.97278  Biso   1.000  C
  C1071    1.0000 0.10627  0.98113  0.84653  Biso   1.000  C
  C1072    1.0000 0.45457  0.07853  0.94919  Biso   1.000  C
  H600     1.0000 0.48607  0.11063  0.94643  Biso   1.000  H
  C1073    1.0000 0.35557  0.88513  0.98404  Biso   1.000  C
  H601     1.0000 0.33847  0.87753  0.98913  Biso   1.000  H
  C1074    1.0000 0.48787  0.15843  0.98046  Biso   1.000  C
  H602     1.0000 0.47957  0.18993  0.98133  Biso   1.000  H
  C1075    1.0000 0.31017  0.91203  0.85071  Biso   1.000  C
  H603     1.0000 0.31117  0.94543  0.84823  Biso   1.000  H
  C1076    1.0000 0.46057  0.07413  0.95714  Biso   1.000  C
  H604     1.0000 0.49347  0.10483  0.95993  Biso   1.000  H
  C1077    1.0000 0.37647  0.94273  0.98061  Biso   1.000  C
  H605     1.0000 0.37467  0.97383  0.98333  Biso   1.000  H
  C1078    1.0000 0.19657  0.01303  0.85442  Biso   1.000  C
  H606     1.0000 0.20347  0.05273  0.85413  Biso   1.000  H
  C1079    1.0000 0.79187  0.23033  0.91549  Biso   1.000  C
  C1080    1.0000 0.29057  0.84803  0.86216  Biso   1.000  C
  H607     1.0000 0.27857  0.83903  0.86753  Biso   1.000  H
  C1081    1.0000 0.32657  0.87293  0.84619  Biso   1.000  C
  H608     1.0000 0.34137  0.88283  0.84103  Biso   1.000  H
  O370     1.0000 0.82637  0.21803  0.90874  Biso   1.000  O
  C1082    1.0000 0.70097  0.12673  0.91038  Biso   1.000  C
  H609     1.0000 0.72607  0.11203  0.90863  Biso   1.000  H
  C1083    1.0000 0.63717  0.09443  0.90930  Biso   1.000  C
  H610     1.0000 0.61537  0.05763  0.90663  Biso   1.000  H
  C1084    1.0000 0.61297  0.12523  0.91282  Biso   1.000  C
  C1085    1.0000 0.72287  0.18043  0.91419  Biso   1.000  C
  O371     1.0000 0.62137  0.21423  0.99243  Biso   1.000  O
  O372     1.0000 0.55327  0.24763  0.99206  Biso   1.000  O
  C1086    1.0000 0.53537  0.15963  0.98444  Biso   1.000  C
  O373     1.0000 0.79877  0.26733  0.92048  Biso   1.000  O
  O374     1.0000 0.38087  0.17223  0.91487  Biso   1.000  O
  C1087    1.0000 0.63607  0.10923  0.90469  Biso   1.000  C
  H611     1.0000 0.61277  0.08263  0.90063  Biso   1.000  H
  C1088    1.0000 0.70697  0.14913  0.90532  Biso   1.000  C
  H612     1.0000 0.73507  0.15413  0.90133  Biso   1.000  H
  Zn103    1.0000 0.99294  0.32579  0.25508  Biso   1.000  Zn
  Zn104    1.0000 0.09084  0.35492  0.24156  Biso   1.000  Zn
  Zn105    1.0000 0.01798  0.42433  0.24148  Biso   1.000  Zn
  Zn106    1.0000 0.11797  0.45204  0.25523  Biso   1.000  Zn
  Zn107    1.0000 0.65220  0.25433  0.17128  Biso   1.000  Zn
  Zn108    1.0000 0.35315  0.60592  0.33273  Biso   1.000  Zn
  O375     1.0000 0.05475  0.38958  0.24860  Biso   1.000  O
  O376     1.0000 0.93422  0.39346  0.24593  Biso   1.000  O
  O377     1.0000 0.06429  0.27237  0.24502  Biso   1.000  O
  O378     1.0000 0.01481  0.33845  0.26651  Biso   1.000  O
  O379     1.0000 0.98604  0.24498  0.25313  Biso   1.000  O
  O380     1.0000 0.06803  0.34577  0.23036  Biso   1.000  O
  O381     1.0000 0.91196  0.31905  0.25466  Biso   1.000  O
  O382     1.0000 0.17743  0.39437  0.24214  Biso   1.000  O
  O383     1.0000 0.19903  0.46207  0.25232  Biso   1.000  O
  O384     1.0000 0.10593  0.42447  0.26635  Biso   1.000  O
  C1089    1.0000 0.83933  0.34787  0.25184  Biso   1.000  C
  O385     1.0000 0.99613  0.37107  0.23185  Biso   1.000  O
  C1090    1.0000 0.89923  0.35347  0.25097  Biso   1.000  C
  O386     1.0000 0.01273  0.07727  0.31413  Biso   1.000  O
  O387     1.0000 0.99363  0.06727  0.18209  Biso   1.000  O
  O388     1.0000 0.98613  0.10867  0.32464  Biso   1.000  O
  O389     1.0000 0.01163  0.12557  0.17114  Biso   1.000  O
  O390     1.0000 0.72063  0.26447  0.17761  Biso   1.000  O
  C1091    1.0000 0.02113  0.23397  0.24953  Biso   1.000  C
  C1092    1.0000 0.01483  0.17257  0.25023  Biso   1.000  C
  C1093    1.0000 0.82463  0.38617  0.24776  Biso   1.000  C
  H613     1.0000 0.85223  0.41477  0.24417  Biso   1.000  H
  O391     1.0000 0.78503  0.36677  0.17784  Biso   1.000  O
  C1094    1.0000 0.06243  0.37767  0.26974  Biso   1.000  C
  S18      1.0000 0.33327  0.51910  0.25151  Biso   1.000  S
  C1095    1.0000 0.72473  0.33947  0.25397  Biso   1.000  C
  C1096    1.0000 0.00623  0.05907  0.25158  Biso   1.000  C
  C1097    1.0000 0.00333  0.33247  0.21952  Biso   1.000  C
  N35      1.0000 0.08993  0.34467  0.30302  Biso   1.000  N
  C1098    1.0000 0.79603  0.30687  0.25700  Biso   1.000  C
  H614     1.0000 0.80553  0.28147  0.25997  Biso   1.000  H
  C1099    1.0000 0.04923  0.10287  0.24706  Biso   1.000  C
  H615     1.0000 0.07663  0.09517  0.24427  Biso   1.000  H
  C1100    1.0000 0.76753  0.38167  0.24907  Biso   1.000  C
  H616     1.0000 0.75893  0.40887  0.24647  Biso   1.000  H
  C1101    1.0000 0.05423  0.15997  0.24639  Biso   1.000  C
  H617     1.0000 0.08503  0.18987  0.24327  Biso   1.000  H
  N36      1.0000 0.94213  0.27057  0.19607  Biso   1.000  N
  C1102    1.0000 0.96423  0.29157  0.20381  Biso   1.000  C
  C1103    1.0000 0.73893  0.30117  0.25808  Biso   1.000  C
  H618     1.0000 0.71063  0.27167  0.26157  Biso   1.000  H
  C1104    1.0000 0.97093  0.12827  0.25493  Biso   1.000  C
  H619     1.0000 0.94373  0.13587  0.25777  Biso   1.000  H
  C1105    1.0000 0.02463  0.32177  0.28258  Biso   1.000  C
  H620     1.0000 0.98903  0.29467  0.27987  Biso   1.000  H
  C1106    1.0000 0.96723  0.07247  0.25544  Biso   1.000  C
  H621     1.0000 0.93663  0.04237  0.25857  Biso   1.000  H
  C1107    1.0000 0.99753  0.11207  0.17870  Biso   1.000  C
  C1108    1.0000 0.03693  0.31747  0.21422  Biso   1.000  C
  H622     1.0000 0.07283  0.31957  0.21597  Biso   1.000  H
  C1109    1.0000 0.07013  0.37067  0.27837  Biso   1.000  C
  C1110    1.0000 0.81393  0.30387  0.18431  Biso   1.000  C
  C1111    1.0000 0.89733  0.28027  0.19233  Biso   1.000  C
  C1112    1.0000 0.02483  0.35047  0.22783  Biso   1.000  C
  C1113    1.0000 0.02993  0.31187  0.29050  Biso   1.000  C
  H623     1.0000 0.99983  0.27767  0.29317  Biso   1.000  H
  C1114    1.0000 0.02583  0.17367  0.31355  Biso   1.000  C
  C1115    1.0000 0.01803  0.29967  0.20638  Biso   1.000  C
  H624     1.0000 0.04303  0.29337  0.20287  Biso   1.000  H
  C1116    1.0000 0.98603  0.15417  0.18318  Biso   1.000  C
  C1117    1.0000 0.97203  0.14407  0.19134  Biso   1.000  C
  H625     1.0000 0.97283  0.11197  0.19397  Biso   1.000  H
  C1118    1.0000 0.12833  0.39707  0.30786  Biso   1.000  C
  C1119    1.0000 0.08303  0.35577  0.29450  Biso   1.000  C
  C1120    1.0000 0.00903  0.11827  0.31770  Biso   1.000  C
  C1121    1.0000 0.21293  0.43787  0.24693  Biso   1.000  C
  C1122    1.0000 0.23803  0.54387  0.32330  Biso   1.000  C
  C1123    1.0000 0.95983  0.23337  0.19193  Biso   1.000  C
  C1124    1.0000 0.04883  0.18527  0.30598  Biso   1.000  C
  H626     1.0000 0.05013  0.15417  0.30317  Biso   1.000  H
  C1125    1.0000 0.92873  0.30637  0.20905  Biso   1.000  C
  H627     1.0000 0.89253  0.30337  0.20727  Biso   1.000  H
  C1126    1.0000 0.94873  0.32497  0.21668  Biso   1.000  C
  H628     1.0000 0.92453  0.33287  0.22007  Biso   1.000  H
  C1127    1.0000 0.84703  0.23437  0.18920  Biso   1.000  C
  H629     1.0000 0.84003  0.19477  0.18967  Biso   1.000  H
  C1128    1.0000 0.80373  0.24427  0.18510  Biso   1.000  C
  H630     1.0000 0.76893  0.21157  0.18297  Biso   1.000  H
  C1129    1.0000 0.11973  0.44677  0.30874  Biso   1.000  C
  H631     1.0000 0.08973  0.44887  0.30577  Biso   1.000  H
  C1130    1.0000 0.90593  0.33737  0.19174  Biso   1.000  C
  H632     1.0000 0.94023  0.37027  0.19397  Biso   1.000  H
  C1131    1.0000 0.21283  0.44597  0.31679  Biso   1.000  C
  H633     1.0000 0.24493  0.44637  0.31957  Biso   1.000  H
  C1132    1.0000 0.06963  0.23957  0.30239  Biso   1.000  C
  H634     1.0000 0.08583  0.24567  0.29727  Biso   1.000  H
  C1133    1.0000 0.17743  0.39747  0.31174  Biso   1.000  C
  H635     1.0000 0.18593  0.36607  0.31097  Biso   1.000  H
  C1134    1.0000 0.06723  0.28447  0.30612  Biso   1.000  C
  C1135    1.0000 0.77293  0.31447  0.17987  Biso   1.000  C
  C1136    1.0000 0.12123  0.41187  0.28253  Biso   1.000  C
  H636     1.0000 0.15273  0.44397  0.27977  Biso   1.000  H
  C1137    1.0000 0.02223  0.21847  0.31738  Biso   1.000  C
  H637     1.0000 0.00513  0.21087  0.32247  Biso   1.000  H
  C1138    1.0000 0.15453  0.49177  0.31380  Biso   1.000  C
  H638     1.0000 0.14623  0.52327  0.31467  Biso   1.000  H
  C1139    1.0000 0.97683  0.24537  0.18405  Biso   1.000  C
  H639     1.0000 0.97783  0.27877  0.18157  Biso   1.000  H
  C1140    1.0000 0.12723  0.40747  0.29048  Biso   1.000  C
  H640     1.0000 0.16013  0.43817  0.29327  Biso   1.000  H
  C1141    1.0000 0.04313  0.27607  0.31395  Biso   1.000  C
  H641     1.0000 0.04133  0.30717  0.31667  Biso   1.000  H
  C1142    1.0000 0.86323  0.34637  0.18776  Biso   1.000  C
  H642     1.0000 0.87013  0.38607  0.18747  Biso   1.000  H
  C1143    1.0000 0.45853  0.56367  0.24883  Biso   1.000  C
  C1144    1.0000 0.95723  0.18137  0.19550  Biso   1.000  C
  H643     1.0000 0.94523  0.17237  0.20087  Biso   1.000  H
  C1145    1.0000 0.99323  0.20627  0.17953  Biso   1.000  C
  H644     1.0000 0.00803  0.21617  0.17437  Biso   1.000  H
  O392     1.0000 0.49303  0.55137  0.24208  Biso   1.000  O
  C1146    1.0000 0.36763  0.46007  0.24372  Biso   1.000  C
  H645     1.0000 0.39273  0.44537  0.24197  Biso   1.000  H
  C1147    1.0000 0.30383  0.42777  0.24264  Biso   1.000  C
  H646     1.0000 0.28203  0.39097  0.23997  Biso   1.000  H
  C1148    1.0000 0.27963  0.45857  0.24616  Biso   1.000  C
  C1149    1.0000 0.38953  0.51377  0.24753  Biso   1.000  C
  O393     1.0000 0.28803  0.54757  0.32577  Biso   1.000  O
  O394     1.0000 0.21993  0.58097  0.32540  Biso   1.000  O
  C1150    1.0000 0.20203  0.49297  0.31778  Biso   1.000  C
  O395     1.0000 0.46543  0.60067  0.25382  Biso   1.000  O
  O396     1.0000 0.04753  0.50557  0.24821  Biso   1.000  O
  C1151    1.0000 0.30273  0.44257  0.23803  Biso   1.000  C
  H647     1.0000 0.27943  0.41597  0.23397  Biso   1.000  H
  C1152    1.0000 0.37363  0.48247  0.23866  Biso   1.000  C
  H648     1.0000 0.40173  0.48747  0.23467  Biso   1.000  H
  Zn109    1.0000 0.00000  0.00000  0.31853  Biso   1.000  Zn
  O397     1.0000 0.00000  0.00000  0.33009  Biso   1.000  O
  Zn110    1.0000 0.66667  0.33333  0.65186  Biso   1.000  Zn
  O398     1.0000 0.66667  0.33333  0.66342  Biso   1.000  O
  Zn111    1.0000 0.33333  0.66667  0.98520  Biso   1.000  Zn
  O399     1.0000 0.33333  0.66667  0.99676  Biso   1.000  O
  Zn112    1.0000 0.00000  0.00000  0.68147  Biso   1.000  Zn
  O400     1.0000 0.00000  0.00000  0.66991  Biso   1.000  O
  Zn113    1.0000 0.66667  0.33333  0.01480  Biso   1.000  Zn
  O401     1.0000 0.66667  0.33333  0.00324  Biso   1.000  O
  Zn114    1.0000 0.33333  0.66667  0.34814  Biso   1.000  Zn
  O402     1.0000 0.33333  0.66667  0.33658  Biso   1.000  O
  Zn115    1.0000 0.66667  0.33333  0.51070  Biso   1.000  Zn
  O403     1.0000 0.66667  0.33333  0.49922  Biso   1.000  O
  N37      1.0000 0.66667  0.33333  0.41183  Biso   1.000  N
  Zn116    1.0000 0.33333  0.66667  0.84403  Biso   1.000  Zn
  O404     1.0000 0.33333  0.66667  0.83255  Biso   1.000  O
  N38      1.0000 0.33333  0.66667  0.74516  Biso   1.000  N
  Zn117    1.0000 0.00000  0.00000  0.17737  Biso   1.000  Zn
  O405     1.0000 0.00000  0.00000  0.16589  Biso   1.000  O
  N39      1.0000 0.00000  0.00000  0.07850  Biso   1.000  N
  Zn118    1.0000 0.33333  0.66667  0.48930  Biso   1.000  Zn
  O406     1.0000 0.33333  0.66667  0.50078  Biso   1.000  O
  N40      1.0000 0.33333  0.66667  0.58817  Biso   1.000  N
  Zn119    1.0000 0.00000  0.00000  0.82263  Biso   1.000  Zn
  O407     1.0000 0.00000  0.00000  0.83411  Biso   1.000  O
  N41      1.0000 0.00000  0.00000  0.92150  Biso   1.000  N
  Zn120    1.0000 0.66667  0.33333  0.15597  Biso   1.000  Zn
  O408     1.0000 0.66667  0.33333  0.16745  Biso   1.000  O
  N42      1.0000 0.66667  0.33333  0.25484  Biso   1.000  N
  N43      1.0000 0.33333  0.66667  0.41448  Biso   1.000  N
  N44      1.0000 0.00000  0.00000  0.74781  Biso   1.000  N
  N45      1.0000 0.66667  0.33333  0.08115  Biso   1.000  N
  N46      1.0000 0.66667  0.33333  0.58552  Biso   1.000  N
  N47      1.0000 0.33333  0.66667  0.91885  Biso   1.000  N
  N48      1.0000 0.00000  0.00000  0.25219  Biso   1.000  N
