data_image0
_cell_length_a       23.157
_cell_length_b       27.317
_cell_length_c       22.592
_cell_angle_alpha    90
_cell_angle_beta     90
_cell_angle_gamma    90

_symmetry_space_group_name_H-M    "P 1"
_symmetry_int_tables_number       1

loop_
  _symmetry_equiv_pos_as_xyz
  'x, y, z'

loop_
  _atom_site_label
  _atom_site_occupancy
  _atom_site_fract_x
  _atom_site_fract_y
  _atom_site_fract_z
  _atom_site_thermal_displace_type
  _atom_site_B_iso_or_equiv
  _atom_site_type_symbol
  Zn1      1.0000 0.76532  0.98970  0.63038  Biso   1.000  Zn
  Zn2      1.0000 0.45807  0.66477  0.62781  Biso   1.000  Zn
  Zn3      1.0000 0.50325  0.82887  0.87269  Biso   1.000  Zn
  N1       1.0000 0.76152  0.96148  0.54829  Biso   1.000  N
  O1       1.0000 0.77281  0.94375  0.69611  Biso   1.000  O
  O2       1.0000 0.62496  0.83749  0.93984  Biso   1.000  O
  O3       1.0000 0.66869  0.57147  0.93751  Biso   1.000  O
  C1       1.0000 0.78200  0.87375  0.85989  Biso   1.000  C
  O4       1.0000 0.83711  0.84307  0.93947  Biso   1.000  O
  O5       1.0000 0.54172  0.17046  0.80341  Biso   1.000  O
  O6       1.0000 0.56027  0.26569  0.62863  Biso   1.000  O
  O7       1.0000 0.66430  0.52893  0.85528  Biso   1.000  O
  C2       1.0000 0.63850  0.15237  0.60992  Biso   1.000  C
  H1       1.0000 0.65360  0.15650  0.57210  Biso   1.000  H
  O8       1.0000 0.58269  0.73980  0.94279  Biso   1.000  O
  O9       1.0000 0.50306  0.66268  0.69738  Biso   1.000  O
  O10      1.0000 0.88386  0.86693  0.85896  Biso   1.000  O
  O11      1.0000 0.52309  0.75968  0.87087  Biso   1.000  O
  O12      1.0000 0.57626  0.86185  0.86004  Biso   1.000  O
  N2       1.0000 0.99305  0.84809  0.95092  Biso   1.000  N
  C3       1.0000 0.67720  0.89102  0.80426  Biso   1.000  C
  H2       1.0000 0.64220  0.89680  0.78530  Biso   1.000  H
  O13      1.0000 0.62069  0.24581  0.55792  Biso   1.000  O
  C4       1.0000 0.67740  0.87081  0.86039  Biso   1.000  C
  C5       1.0000 0.60152  0.64683  0.89148  Biso   1.000  C
  H3       1.0000 0.61700  0.65140  0.92900  Biso   1.000  H
  C6       1.0000 0.73044  0.86277  0.88885  Biso   1.000  C
  H4       1.0000 0.73120  0.85010  0.92710  Biso   1.000  H
  C7       1.0000 0.61230  0.60329  0.86038  Biso   1.000  C
  C8       1.0000 0.83910  0.86025  0.88890  Biso   1.000  C
  C9       1.0000 0.54270  0.67595  0.80970  Biso   1.000  C
  H5       1.0000 0.51950  0.70000  0.79290  Biso   1.000  H
  C10      1.0000 0.78070  0.89460  0.80408  Biso   1.000  C
  H6       1.0000 0.81510  0.90320  0.78550  Biso   1.000  H
  C11      1.0000 0.62200  0.85575  0.88990  Biso   1.000  C
  C12      1.0000 0.60480  0.18909  0.63453  Biso   1.000  C
  C13      1.0000 0.58180  0.18242  0.69050  Biso   1.000  C
  H7       1.0000 0.55990  0.20710  0.70780  Biso   1.000  H
  C14      1.0000 0.62530  0.10289  0.69640  Biso   1.000  C
  H8       1.0000 0.63170  0.07400  0.71720  Biso   1.000  H
  C15      1.0000 0.55280  0.63265  0.77923  Biso   1.000  C
  C16      1.0000 0.58820  0.59709  0.80393  Biso   1.000  C
  H9       1.0000 0.59610  0.56870  0.78270  Biso   1.000  H
  N3       1.0000 0.46846  0.84053  0.95110  Biso   1.000  N
  C17      1.0000 0.56410  0.13180  0.78130  Biso   1.000  C
  C18      1.0000 0.72600  0.92621  0.71470  Biso   1.000  C
  C19      1.0000 0.72881  0.90280  0.77566  Biso   1.000  C
  O14      1.0000 0.53330  0.58592  0.69261  Biso   1.000  O
  O15      1.0000 0.68029  0.92733  0.68804  Biso   1.000  O
  C20      1.0000 0.59110  0.13921  0.72085  Biso   1.000  C
  C21      1.0000 0.65130  0.56514  0.88732  Biso   1.000  C
  C22      1.0000 0.52790  0.62480  0.71860  Biso   1.000  C
  C23      1.0000 0.56710  0.68349  0.86557  Biso   1.000  C
  C24      1.0000 0.65020  0.10940  0.64081  Biso   1.000  C
  O16      1.0000 0.56570  0.09260  0.80665  Biso   1.000  O
  C25      1.0000 0.55670  0.73170  0.89620  Biso   1.000  C
  C26      1.0000 0.59370  0.23752  0.60440  Biso   1.000  C
  C27      1.0000 0.04370  0.86780  0.96850  Biso   1.000  C
  C28      1.0000 0.75680  0.91311  0.53044  Biso   1.000  C
  C29      1.0000 0.09190  0.88510  0.93400  Biso   1.000  C
  H10      1.0000 0.09250  0.88460  0.89280  Biso   1.000  H
  O17      1.0000 0.70112  0.07314  0.56195  Biso   1.000  O
  O18      1.0000 0.70445  0.03710  0.64889  Biso   1.000  O
  C30      1.0000 0.68730  0.07030  0.61490  Biso   1.000  C
  C31      1.0000 0.75300  0.86980  0.56400  Biso   1.000  C
  H11      1.0000 0.75130  0.87000  0.60510  Biso   1.000  H
  C32      1.0000 0.75190  0.82730  0.53200  Biso   1.000  C
  H12      1.0000 0.75120  0.79760  0.55200  Biso   1.000  H
  C33      1.0000 0.13800  0.90310  0.96880  Biso   1.000  C
  H13      1.0000 0.17020  0.91560  0.94940  Biso   1.000  H
  C34      1.0000 0.42240  0.86820  0.96910  Biso   1.000  C
  C35      1.0000 0.37780  0.88970  0.93630  Biso   1.000  C
  H14      1.0000 0.37830  0.88950  0.89510  Biso   1.000  H
  C36      1.0000 0.33110  0.91190  0.96870  Biso   1.000  C
  H15      1.0000 0.30070  0.92640  0.94820  Biso   1.000  H
  C37      1.0000 0.58930  0.16060  0.02910  Biso   1.000  C
  C38      1.0000 0.63940  0.14490  0.06410  Biso   1.000  C
  C39      1.0000 0.68480  0.12760  0.03060  Biso   1.000  C
  H16      1.0000 0.64040  0.14640  0.10520  Biso   1.000  H
  H17      1.0000 0.71710  0.11530  0.05010  Biso   1.000  H
  Zn4      1.0000 0.23468  0.01030  0.63038  Biso   1.000  Zn
  Zn5      1.0000 0.54193  0.33523  0.62781  Biso   1.000  Zn
  Zn6      1.0000 0.49675  0.17113  0.87269  Biso   1.000  Zn
  N4       1.0000 0.23848  0.03852  0.54829  Biso   1.000  N
  O19      1.0000 0.22719  0.05625  0.69611  Biso   1.000  O
  O20      1.0000 0.37504  0.16251  0.93984  Biso   1.000  O
  O21      1.0000 0.33131  0.42853  0.93751  Biso   1.000  O
  C40      1.0000 0.21800  0.12625  0.85989  Biso   1.000  C
  O22      1.0000 0.16289  0.15693  0.93947  Biso   1.000  O
  O23      1.0000 0.45828  0.82954  0.80341  Biso   1.000  O
  O24      1.0000 0.43973  0.73431  0.62863  Biso   1.000  O
  O25      1.0000 0.33570  0.47107  0.85528  Biso   1.000  O
  C41      1.0000 0.36150  0.84763  0.60992  Biso   1.000  C
  H18      1.0000 0.34640  0.84350  0.57210  Biso   1.000  H
  O26      1.0000 0.41731  0.26020  0.94279  Biso   1.000  O
  O27      1.0000 0.49694  0.33732  0.69738  Biso   1.000  O
  O28      1.0000 0.11614  0.13307  0.85896  Biso   1.000  O
  O29      1.0000 0.47691  0.24032  0.87087  Biso   1.000  O
  O30      1.0000 0.42374  0.13815  0.86004  Biso   1.000  O
  N5       1.0000 0.00695  0.15191  0.95092  Biso   1.000  N
  C42      1.0000 0.32280  0.10898  0.80426  Biso   1.000  C
  H19      1.0000 0.35780  0.10320  0.78530  Biso   1.000  H
  O31      1.0000 0.37931  0.75419  0.55792  Biso   1.000  O
  C43      1.0000 0.32260  0.12919  0.86039  Biso   1.000  C
  C44      1.0000 0.39848  0.35317  0.89148  Biso   1.000  C
  H20      1.0000 0.38300  0.34860  0.92900  Biso   1.000  H
  C45      1.0000 0.26956  0.13723  0.88885  Biso   1.000  C
  H21      1.0000 0.26880  0.14990  0.92710  Biso   1.000  H
  C46      1.0000 0.38770  0.39671  0.86038  Biso   1.000  C
  C47      1.0000 0.16090  0.13975  0.88890  Biso   1.000  C
  C48      1.0000 0.45730  0.32405  0.80970  Biso   1.000  C
  H22      1.0000 0.48050  0.30000  0.79290  Biso   1.000  H
  C49      1.0000 0.21930  0.10540  0.80408  Biso   1.000  C
  H23      1.0000 0.18490  0.09680  0.78550  Biso   1.000  H
  C50      1.0000 0.37800  0.14425  0.88990  Biso   1.000  C
  C51      1.0000 0.39520  0.81091  0.63453  Biso   1.000  C
  C52      1.0000 0.41820  0.81758  0.69050  Biso   1.000  C
  H24      1.0000 0.44010  0.79290  0.70780  Biso   1.000  H
  C53      1.0000 0.37470  0.89711  0.69640  Biso   1.000  C
  H25      1.0000 0.36830  0.92600  0.71720  Biso   1.000  H
  C54      1.0000 0.44720  0.36735  0.77923  Biso   1.000  C
  C55      1.0000 0.41180  0.40291  0.80393  Biso   1.000  C
  H26      1.0000 0.40390  0.43130  0.78270  Biso   1.000  H
  N6       1.0000 0.53154  0.15947  0.95110  Biso   1.000  N
  C56      1.0000 0.43590  0.86820  0.78130  Biso   1.000  C
  C57      1.0000 0.27400  0.07379  0.71470  Biso   1.000  C
  C58      1.0000 0.27119  0.09720  0.77566  Biso   1.000  C
  O32      1.0000 0.46670  0.41408  0.69261  Biso   1.000  O
  O33      1.0000 0.31971  0.07267  0.68804  Biso   1.000  O
  C59      1.0000 0.40890  0.86079  0.72085  Biso   1.000  C
  C60      1.0000 0.34870  0.43486  0.88732  Biso   1.000  C
  C61      1.0000 0.47210  0.37520  0.71860  Biso   1.000  C
  C62      1.0000 0.43290  0.31651  0.86557  Biso   1.000  C
  C63      1.0000 0.34980  0.89060  0.64081  Biso   1.000  C
  O34      1.0000 0.43430  0.90740  0.80665  Biso   1.000  O
  C64      1.0000 0.44330  0.26830  0.89620  Biso   1.000  C
  C65      1.0000 0.40630  0.76248  0.60440  Biso   1.000  C
  C66      1.0000 0.95630  0.13220  0.96850  Biso   1.000  C
  C67      1.0000 0.24320  0.08689  0.53044  Biso   1.000  C
  C68      1.0000 0.90810  0.11490  0.93400  Biso   1.000  C
  H27      1.0000 0.90750  0.11540  0.89280  Biso   1.000  H
  O35      1.0000 0.29888  0.92686  0.56195  Biso   1.000  O
  O36      1.0000 0.29555  0.96290  0.64889  Biso   1.000  O
  C69      1.0000 0.31270  0.92970  0.61490  Biso   1.000  C
  C70      1.0000 0.24700  0.13020  0.56400  Biso   1.000  C
  H28      1.0000 0.24870  0.13000  0.60510  Biso   1.000  H
  C71      1.0000 0.24810  0.17270  0.53200  Biso   1.000  C
  H29      1.0000 0.24880  0.20240  0.55200  Biso   1.000  H
  C72      1.0000 0.86200  0.09690  0.96880  Biso   1.000  C
  H30      1.0000 0.82980  0.08440  0.94940  Biso   1.000  H
  C73      1.0000 0.57760  0.13180  0.96910  Biso   1.000  C
  C74      1.0000 0.62220  0.11030  0.93630  Biso   1.000  C
  H31      1.0000 0.62170  0.11050  0.89510  Biso   1.000  H
  C75      1.0000 0.66890  0.08810  0.96870  Biso   1.000  C
  H32      1.0000 0.69930  0.07360  0.94820  Biso   1.000  H
  C76      1.0000 0.41070  0.83940  0.02910  Biso   1.000  C
  C77      1.0000 0.36060  0.85510  0.06410  Biso   1.000  C
  C78      1.0000 0.31520  0.87240  0.03060  Biso   1.000  C
  H33      1.0000 0.35960  0.85360  0.10520  Biso   1.000  H
  H34      1.0000 0.28290  0.88470  0.05010  Biso   1.000  H
  Zn7      1.0000 0.73468  0.48970  0.86962  Biso   1.000  Zn
  Zn8      1.0000 0.04193  0.16477  0.87219  Biso   1.000  Zn
  Zn9      1.0000 0.99675  0.32887  0.62731  Biso   1.000  Zn
  N7       1.0000 0.73848  0.46148  0.95171  Biso   1.000  N
  O37      1.0000 0.72719  0.44375  0.80389  Biso   1.000  O
  O38      1.0000 0.87504  0.33749  0.56016  Biso   1.000  O
  O39      1.0000 0.83131  0.07147  0.56249  Biso   1.000  O
  C79      1.0000 0.71800  0.37375  0.64011  Biso   1.000  C
  O40      1.0000 0.66289  0.34307  0.56053  Biso   1.000  O
  O41      1.0000 0.95828  0.67046  0.69659  Biso   1.000  O
  O42      1.0000 0.93973  0.76569  0.87137  Biso   1.000  O
  O43      1.0000 0.83570  0.02893  0.64472  Biso   1.000  O
  C80      1.0000 0.86150  0.65237  0.89008  Biso   1.000  C
  H35      1.0000 0.84640  0.65650  0.92790  Biso   1.000  H
  O44      1.0000 0.91731  0.23980  0.55721  Biso   1.000  O
  O45      1.0000 0.99694  0.16268  0.80262  Biso   1.000  O
  O46      1.0000 0.61614  0.36693  0.64104  Biso   1.000  O
  O47      1.0000 0.97691  0.25968  0.62913  Biso   1.000  O
  O48      1.0000 0.92374  0.36185  0.63996  Biso   1.000  O
  N8       1.0000 0.50695  0.34809  0.54908  Biso   1.000  N
  C81      1.0000 0.82280  0.39102  0.69574  Biso   1.000  C
  H36      1.0000 0.85780  0.39680  0.71470  Biso   1.000  H
  O49      1.0000 0.87931  0.74581  0.94208  Biso   1.000  O
  C82      1.0000 0.82260  0.37081  0.63961  Biso   1.000  C
  C83      1.0000 0.89848  0.14683  0.60852  Biso   1.000  C
  H37      1.0000 0.88300  0.15140  0.57100  Biso   1.000  H
  C84      1.0000 0.76956  0.36277  0.61115  Biso   1.000  C
  H38      1.0000 0.76880  0.35010  0.57290  Biso   1.000  H
  C85      1.0000 0.88770  0.10329  0.63962  Biso   1.000  C
  C86      1.0000 0.66090  0.36025  0.61110  Biso   1.000  C
  C87      1.0000 0.95730  0.17595  0.69030  Biso   1.000  C
  H39      1.0000 0.98050  0.20000  0.70710  Biso   1.000  H
  C88      1.0000 0.71930  0.39460  0.69592  Biso   1.000  C
  H40      1.0000 0.68490  0.40320  0.71450  Biso   1.000  H
  C89      1.0000 0.87800  0.35575  0.61010  Biso   1.000  C
  C90      1.0000 0.89520  0.68909  0.86547  Biso   1.000  C
  C91      1.0000 0.91820  0.68242  0.80950  Biso   1.000  C
  H41      1.0000 0.94010  0.70710  0.79220  Biso   1.000  H
  C92      1.0000 0.87470  0.60289  0.80360  Biso   1.000  C
  H42      1.0000 0.86830  0.57400  0.78280  Biso   1.000  H
  C93      1.0000 0.94720  0.13265  0.72077  Biso   1.000  C
  C94      1.0000 0.91180  0.09709  0.69607  Biso   1.000  C
  H43      1.0000 0.90390  0.06870  0.71730  Biso   1.000  H
  N9       1.0000 0.03154  0.34053  0.54890  Biso   1.000  N
  C95      1.0000 0.93590  0.63180  0.71870  Biso   1.000  C
  C96      1.0000 0.77400  0.42621  0.78530  Biso   1.000  C
  C97      1.0000 0.77119  0.40280  0.72434  Biso   1.000  C
  O50      1.0000 0.96670  0.08592  0.80739  Biso   1.000  O
  O51      1.0000 0.81971  0.42733  0.81196  Biso   1.000  O
  C98      1.0000 0.90890  0.63921  0.77915  Biso   1.000  C
  C99      1.0000 0.84870  0.06514  0.61268  Biso   1.000  C
  C100     1.0000 0.97210  0.12480  0.78140  Biso   1.000  C
  C101     1.0000 0.93290  0.18349  0.63443  Biso   1.000  C
  C102     1.0000 0.84980  0.60940  0.85919  Biso   1.000  C
  O52      1.0000 0.93430  0.59260  0.69335  Biso   1.000  O
  C103     1.0000 0.94330  0.23170  0.60380  Biso   1.000  C
  C104     1.0000 0.90630  0.73752  0.89560  Biso   1.000  C
  C105     1.0000 0.45630  0.36780  0.53150  Biso   1.000  C
  C106     1.0000 0.74320  0.41311  0.96956  Biso   1.000  C
  C107     1.0000 0.40810  0.38510  0.56600  Biso   1.000  C
  H44      1.0000 0.40750  0.38460  0.60720  Biso   1.000  H
  O53      1.0000 0.79888  0.57314  0.93805  Biso   1.000  O
  O54      1.0000 0.79555  0.53710  0.85111  Biso   1.000  O
  C108     1.0000 0.81270  0.57030  0.88510  Biso   1.000  C
  C109     1.0000 0.74700  0.36980  0.93600  Biso   1.000  C
  H45      1.0000 0.74870  0.37000  0.89490  Biso   1.000  H
  C110     1.0000 0.74810  0.32730  0.96800  Biso   1.000  C
  H46      1.0000 0.74880  0.29760  0.94800  Biso   1.000  H
  C111     1.0000 0.36200  0.40310  0.53120  Biso   1.000  C
  H47      1.0000 0.32980  0.41560  0.55060  Biso   1.000  H
  C112     1.0000 0.07760  0.36820  0.53090  Biso   1.000  C
  C113     1.0000 0.12220  0.38970  0.56370  Biso   1.000  C
  H48      1.0000 0.12170  0.38950  0.60490  Biso   1.000  H
  C114     1.0000 0.16890  0.41190  0.53130  Biso   1.000  C
  H49      1.0000 0.19930  0.42640  0.55180  Biso   1.000  H
  C115     1.0000 0.91070  0.66060  0.47090  Biso   1.000  C
  C116     1.0000 0.86060  0.64490  0.43590  Biso   1.000  C
  C117     1.0000 0.81520  0.62760  0.46940  Biso   1.000  C
  H50      1.0000 0.85960  0.64640  0.39480  Biso   1.000  H
  H51      1.0000 0.78290  0.61530  0.44990  Biso   1.000  H
  Zn10     1.0000 0.26532  0.51030  0.86962  Biso   1.000  Zn
  Zn11     1.0000 0.95807  0.83523  0.87219  Biso   1.000  Zn
  Zn12     1.0000 0.00325  0.67113  0.62731  Biso   1.000  Zn
  N10      1.0000 0.26152  0.53852  0.95171  Biso   1.000  N
  O55      1.0000 0.27281  0.55625  0.80389  Biso   1.000  O
  O56      1.0000 0.12496  0.66251  0.56016  Biso   1.000  O
  O57      1.0000 0.16869  0.92853  0.56249  Biso   1.000  O
  C118     1.0000 0.28200  0.62625  0.64011  Biso   1.000  C
  O58      1.0000 0.33711  0.65693  0.56053  Biso   1.000  O
  O59      1.0000 0.04172  0.32954  0.69659  Biso   1.000  O
  O60      1.0000 0.06027  0.23431  0.87137  Biso   1.000  O
  O61      1.0000 0.16430  0.97107  0.64472  Biso   1.000  O
  C119     1.0000 0.13850  0.34763  0.89008  Biso   1.000  C
  H52      1.0000 0.15360  0.34350  0.92790  Biso   1.000  H
  O62      1.0000 0.08269  0.76020  0.55721  Biso   1.000  O
  O63      1.0000 0.00306  0.83732  0.80262  Biso   1.000  O
  O64      1.0000 0.38386  0.63307  0.64104  Biso   1.000  O
  O65      1.0000 0.02309  0.74032  0.62913  Biso   1.000  O
  O66      1.0000 0.07626  0.63815  0.63996  Biso   1.000  O
  N11      1.0000 0.49305  0.65191  0.54908  Biso   1.000  N
  C120     1.0000 0.17720  0.60898  0.69574  Biso   1.000  C
  H53      1.0000 0.14220  0.60320  0.71470  Biso   1.000  H
  O67      1.0000 0.12069  0.25419  0.94208  Biso   1.000  O
  C121     1.0000 0.17740  0.62919  0.63961  Biso   1.000  C
  C122     1.0000 0.10152  0.85317  0.60852  Biso   1.000  C
  H54      1.0000 0.11700  0.84860  0.57100  Biso   1.000  H
  C123     1.0000 0.23044  0.63723  0.61115  Biso   1.000  C
  H55      1.0000 0.23120  0.64990  0.57290  Biso   1.000  H
  C124     1.0000 0.11230  0.89671  0.63962  Biso   1.000  C
  C125     1.0000 0.33910  0.63975  0.61110  Biso   1.000  C
  C126     1.0000 0.04270  0.82405  0.69030  Biso   1.000  C
  H56      1.0000 0.01950  0.80000  0.70710  Biso   1.000  H
  C127     1.0000 0.28070  0.60540  0.69592  Biso   1.000  C
  H57      1.0000 0.31510  0.59680  0.71450  Biso   1.000  H
  C128     1.0000 0.12200  0.64425  0.61010  Biso   1.000  C
  C129     1.0000 0.10480  0.31091  0.86547  Biso   1.000  C
  C130     1.0000 0.08180  0.31758  0.80950  Biso   1.000  C
  H58      1.0000 0.05990  0.29290  0.79220  Biso   1.000  H
  C131     1.0000 0.12530  0.39711  0.80360  Biso   1.000  C
  H59      1.0000 0.13170  0.42600  0.78280  Biso   1.000  H
  C132     1.0000 0.05280  0.86735  0.72077  Biso   1.000  C
  C133     1.0000 0.08820  0.90291  0.69607  Biso   1.000  C
  H60      1.0000 0.09610  0.93130  0.71730  Biso   1.000  H
  N12      1.0000 0.96846  0.65947  0.54890  Biso   1.000  N
  C134     1.0000 0.06410  0.36820  0.71870  Biso   1.000  C
  C135     1.0000 0.22600  0.57379  0.78530  Biso   1.000  C
  C136     1.0000 0.22881  0.59720  0.72434  Biso   1.000  C
  O68      1.0000 0.03330  0.91408  0.80739  Biso   1.000  O
  O69      1.0000 0.18029  0.57267  0.81196  Biso   1.000  O
  C137     1.0000 0.09110  0.36079  0.77915  Biso   1.000  C
  C138     1.0000 0.15130  0.93486  0.61268  Biso   1.000  C
  C139     1.0000 0.02790  0.87520  0.78140  Biso   1.000  C
  C140     1.0000 0.06710  0.81651  0.63443  Biso   1.000  C
  C141     1.0000 0.15020  0.39060  0.85919  Biso   1.000  C
  O70      1.0000 0.06570  0.40740  0.69335  Biso   1.000  O
  C142     1.0000 0.05670  0.76830  0.60380  Biso   1.000  C
  C143     1.0000 0.09370  0.26248  0.89560  Biso   1.000  C
  C144     1.0000 0.54370  0.63220  0.53150  Biso   1.000  C
  C145     1.0000 0.25680  0.58689  0.96956  Biso   1.000  C
  C146     1.0000 0.59190  0.61490  0.56600  Biso   1.000  C
  H61      1.0000 0.59250  0.61540  0.60720  Biso   1.000  H
  O71      1.0000 0.20112  0.42686  0.93805  Biso   1.000  O
  O72      1.0000 0.20445  0.46290  0.85111  Biso   1.000  O
  C147     1.0000 0.18730  0.42970  0.88510  Biso   1.000  C
  C148     1.0000 0.25300  0.63020  0.93600  Biso   1.000  C
  H62      1.0000 0.25130  0.63000  0.89490  Biso   1.000  H
  C149     1.0000 0.25190  0.67270  0.96800  Biso   1.000  C
  H63      1.0000 0.25120  0.70240  0.94800  Biso   1.000  H
  C150     1.0000 0.63800  0.59690  0.53120  Biso   1.000  C
  H64      1.0000 0.67020  0.58440  0.55060  Biso   1.000  H
  C151     1.0000 0.92240  0.63180  0.53090  Biso   1.000  C
  C152     1.0000 0.87780  0.61030  0.56370  Biso   1.000  C
  H65      1.0000 0.87830  0.61050  0.60490  Biso   1.000  H
  C153     1.0000 0.83110  0.58810  0.53130  Biso   1.000  C
  H66      1.0000 0.80070  0.57360  0.55180  Biso   1.000  H
  C154     1.0000 0.08930  0.33940  0.47090  Biso   1.000  C
  C155     1.0000 0.13940  0.35510  0.43590  Biso   1.000  C
  C156     1.0000 0.18480  0.37240  0.46940  Biso   1.000  C
  H67      1.0000 0.14040  0.35360  0.39480  Biso   1.000  H
  H68      1.0000 0.21710  0.38470  0.44990  Biso   1.000  H
  Zn13     1.0000 0.23468  0.01030  0.36962  Biso   1.000  Zn
  Zn14     1.0000 0.54193  0.33523  0.37219  Biso   1.000  Zn
  Zn15     1.0000 0.49675  0.17113  0.12731  Biso   1.000  Zn
  N13      1.0000 0.23848  0.03852  0.45171  Biso   1.000  N
  O73      1.0000 0.22719  0.05625  0.30389  Biso   1.000  O
  O74      1.0000 0.37504  0.16251  0.06016  Biso   1.000  O
  O75      1.0000 0.33131  0.42853  0.06249  Biso   1.000  O
  C157     1.0000 0.21800  0.12625  0.14011  Biso   1.000  C
  O76      1.0000 0.16289  0.15693  0.06053  Biso   1.000  O
  O77      1.0000 0.45828  0.82954  0.19659  Biso   1.000  O
  O78      1.0000 0.43973  0.73431  0.37137  Biso   1.000  O
  O79      1.0000 0.33570  0.47107  0.14472  Biso   1.000  O
  C158     1.0000 0.36150  0.84763  0.39008  Biso   1.000  C
  H69      1.0000 0.34640  0.84350  0.42790  Biso   1.000  H
  O80      1.0000 0.41731  0.26020  0.05721  Biso   1.000  O
  O81      1.0000 0.49694  0.33732  0.30262  Biso   1.000  O
  O82      1.0000 0.11614  0.13307  0.14104  Biso   1.000  O
  O83      1.0000 0.47691  0.24032  0.12913  Biso   1.000  O
  O84      1.0000 0.42374  0.13815  0.13996  Biso   1.000  O
  N14      1.0000 0.00695  0.15191  0.04908  Biso   1.000  N
  C159     1.0000 0.32280  0.10898  0.19574  Biso   1.000  C
  H70      1.0000 0.35780  0.10320  0.21470  Biso   1.000  H
  O85      1.0000 0.37931  0.75419  0.44208  Biso   1.000  O
  C160     1.0000 0.32260  0.12919  0.13961  Biso   1.000  C
  C161     1.0000 0.39848  0.35317  0.10852  Biso   1.000  C
  H71      1.0000 0.38300  0.34860  0.07100  Biso   1.000  H
  C162     1.0000 0.26956  0.13723  0.11115  Biso   1.000  C
  H72      1.0000 0.26880  0.14990  0.07290  Biso   1.000  H
  C163     1.0000 0.38770  0.39671  0.13962  Biso   1.000  C
  C164     1.0000 0.16090  0.13975  0.11110  Biso   1.000  C
  C165     1.0000 0.45730  0.32405  0.19030  Biso   1.000  C
  H73      1.0000 0.48050  0.30000  0.20710  Biso   1.000  H
  C166     1.0000 0.21930  0.10540  0.19592  Biso   1.000  C
  H74      1.0000 0.18490  0.09680  0.21450  Biso   1.000  H
  C167     1.0000 0.37800  0.14425  0.11010  Biso   1.000  C
  C168     1.0000 0.39520  0.81091  0.36547  Biso   1.000  C
  C169     1.0000 0.41820  0.81758  0.30950  Biso   1.000  C
  H75      1.0000 0.44010  0.79290  0.29220  Biso   1.000  H
  C170     1.0000 0.37470  0.89711  0.30360  Biso   1.000  C
  H76      1.0000 0.36830  0.92600  0.28280  Biso   1.000  H
  C171     1.0000 0.44720  0.36735  0.22077  Biso   1.000  C
  C172     1.0000 0.41180  0.40291  0.19607  Biso   1.000  C
  H77      1.0000 0.40390  0.43130  0.21730  Biso   1.000  H
  N15      1.0000 0.53154  0.15947  0.04890  Biso   1.000  N
  C173     1.0000 0.43590  0.86820  0.21870  Biso   1.000  C
  C174     1.0000 0.27400  0.07379  0.28530  Biso   1.000  C
  C175     1.0000 0.27119  0.09720  0.22434  Biso   1.000  C
  O86      1.0000 0.46670  0.41408  0.30739  Biso   1.000  O
  O87      1.0000 0.31971  0.07267  0.31196  Biso   1.000  O
  C176     1.0000 0.40890  0.86079  0.27915  Biso   1.000  C
  C177     1.0000 0.34870  0.43486  0.11268  Biso   1.000  C
  C178     1.0000 0.47210  0.37520  0.28140  Biso   1.000  C
  C179     1.0000 0.43290  0.31651  0.13443  Biso   1.000  C
  C180     1.0000 0.34980  0.89060  0.35919  Biso   1.000  C
  O88      1.0000 0.43430  0.90740  0.19335  Biso   1.000  O
  C181     1.0000 0.44330  0.26830  0.10380  Biso   1.000  C
  C182     1.0000 0.40630  0.76248  0.39560  Biso   1.000  C
  C183     1.0000 0.95630  0.13220  0.03150  Biso   1.000  C
  C184     1.0000 0.24320  0.08689  0.46956  Biso   1.000  C
  C185     1.0000 0.90810  0.11490  0.06600  Biso   1.000  C
  H78      1.0000 0.90750  0.11540  0.10720  Biso   1.000  H
  O89      1.0000 0.29888  0.92686  0.43805  Biso   1.000  O
  O90      1.0000 0.29555  0.96290  0.35111  Biso   1.000  O
  C186     1.0000 0.31270  0.92970  0.38510  Biso   1.000  C
  C187     1.0000 0.24700  0.13020  0.43600  Biso   1.000  C
  H79      1.0000 0.24870  0.13000  0.39490  Biso   1.000  H
  C188     1.0000 0.24810  0.17270  0.46800  Biso   1.000  C
  H80      1.0000 0.24880  0.20240  0.44800  Biso   1.000  H
  C189     1.0000 0.86200  0.09690  0.03120  Biso   1.000  C
  H81      1.0000 0.82980  0.08440  0.05060  Biso   1.000  H
  C190     1.0000 0.57760  0.13180  0.03090  Biso   1.000  C
  C191     1.0000 0.62220  0.11030  0.06370  Biso   1.000  C
  H82      1.0000 0.62170  0.11050  0.10490  Biso   1.000  H
  C192     1.0000 0.66890  0.08810  0.03130  Biso   1.000  C
  H83      1.0000 0.69930  0.07360  0.05180  Biso   1.000  H
  C193     1.0000 0.41070  0.83940  0.97090  Biso   1.000  C
  C194     1.0000 0.36060  0.85510  0.93590  Biso   1.000  C
  C195     1.0000 0.31520  0.87240  0.96940  Biso   1.000  C
  H84      1.0000 0.35960  0.85360  0.89480  Biso   1.000  H
  H85      1.0000 0.28290  0.88470  0.94990  Biso   1.000  H
  Zn16     1.0000 0.76532  0.98970  0.36962  Biso   1.000  Zn
  Zn17     1.0000 0.45807  0.66477  0.37219  Biso   1.000  Zn
  Zn18     1.0000 0.50325  0.82887  0.12731  Biso   1.000  Zn
  N16      1.0000 0.76152  0.96148  0.45171  Biso   1.000  N
  O91      1.0000 0.77281  0.94375  0.30389  Biso   1.000  O
  O92      1.0000 0.62496  0.83749  0.06016  Biso   1.000  O
  O93      1.0000 0.66869  0.57147  0.06249  Biso   1.000  O
  C196     1.0000 0.78200  0.87375  0.14011  Biso   1.000  C
  O94      1.0000 0.83711  0.84307  0.06053  Biso   1.000  O
  O95      1.0000 0.54172  0.17046  0.19659  Biso   1.000  O
  O96      1.0000 0.56027  0.26569  0.37137  Biso   1.000  O
  O97      1.0000 0.66430  0.52893  0.14472  Biso   1.000  O
  C197     1.0000 0.63850  0.15237  0.39008  Biso   1.000  C
  H86      1.0000 0.65360  0.15650  0.42790  Biso   1.000  H
  O98      1.0000 0.58269  0.73980  0.05721  Biso   1.000  O
  O99      1.0000 0.50306  0.66268  0.30262  Biso   1.000  O
  O100     1.0000 0.88386  0.86693  0.14104  Biso   1.000  O
  O101     1.0000 0.52309  0.75968  0.12913  Biso   1.000  O
  O102     1.0000 0.57626  0.86185  0.13996  Biso   1.000  O
  N17      1.0000 0.99305  0.84809  0.04908  Biso   1.000  N
  C198     1.0000 0.67720  0.89102  0.19574  Biso   1.000  C
  H87      1.0000 0.64220  0.89680  0.21470  Biso   1.000  H
  O103     1.0000 0.62069  0.24581  0.44208  Biso   1.000  O
  C199     1.0000 0.67740  0.87081  0.13961  Biso   1.000  C
  C200     1.0000 0.60152  0.64683  0.10852  Biso   1.000  C
  H88      1.0000 0.61700  0.65140  0.07100  Biso   1.000  H
  C201     1.0000 0.73044  0.86277  0.11115  Biso   1.000  C
  H89      1.0000 0.73120  0.85010  0.07290  Biso   1.000  H
  C202     1.0000 0.61230  0.60329  0.13962  Biso   1.000  C
  C203     1.0000 0.83910  0.86025  0.11110  Biso   1.000  C
  C204     1.0000 0.54270  0.67595  0.19030  Biso   1.000  C
  H90      1.0000 0.51950  0.70000  0.20710  Biso   1.000  H
  C205     1.0000 0.78070  0.89460  0.19592  Biso   1.000  C
  H91      1.0000 0.81510  0.90320  0.21450  Biso   1.000  H
  C206     1.0000 0.62200  0.85575  0.11010  Biso   1.000  C
  C207     1.0000 0.60480  0.18909  0.36547  Biso   1.000  C
  C208     1.0000 0.58180  0.18242  0.30950  Biso   1.000  C
  H92      1.0000 0.55990  0.20710  0.29220  Biso   1.000  H
  C209     1.0000 0.62530  0.10289  0.30360  Biso   1.000  C
  H93      1.0000 0.63170  0.07400  0.28280  Biso   1.000  H
  C210     1.0000 0.55280  0.63265  0.22077  Biso   1.000  C
  C211     1.0000 0.58820  0.59709  0.19607  Biso   1.000  C
  H94      1.0000 0.59610  0.56870  0.21730  Biso   1.000  H
  N18      1.0000 0.46846  0.84053  0.04890  Biso   1.000  N
  C212     1.0000 0.56410  0.13180  0.21870  Biso   1.000  C
  C213     1.0000 0.72600  0.92621  0.28530  Biso   1.000  C
  C214     1.0000 0.72881  0.90280  0.22434  Biso   1.000  C
  O104     1.0000 0.53330  0.58592  0.30739  Biso   1.000  O
  O105     1.0000 0.68029  0.92733  0.31196  Biso   1.000  O
  C215     1.0000 0.59110  0.13921  0.27915  Biso   1.000  C
  C216     1.0000 0.65130  0.56514  0.11268  Biso   1.000  C
  C217     1.0000 0.52790  0.62480  0.28140  Biso   1.000  C
  C218     1.0000 0.56710  0.68349  0.13443  Biso   1.000  C
  C219     1.0000 0.65020  0.10940  0.35919  Biso   1.000  C
  O106     1.0000 0.56570  0.09260  0.19335  Biso   1.000  O
  C220     1.0000 0.55670  0.73170  0.10380  Biso   1.000  C
  C221     1.0000 0.59370  0.23752  0.39560  Biso   1.000  C
  C222     1.0000 0.04370  0.86780  0.03150  Biso   1.000  C
  C223     1.0000 0.75680  0.91311  0.46956  Biso   1.000  C
  C224     1.0000 0.09190  0.88510  0.06600  Biso   1.000  C
  H95      1.0000 0.09250  0.88460  0.10720  Biso   1.000  H
  O107     1.0000 0.70112  0.07314  0.43805  Biso   1.000  O
  O108     1.0000 0.70445  0.03710  0.35111  Biso   1.000  O
  C225     1.0000 0.68730  0.07030  0.38510  Biso   1.000  C
  C226     1.0000 0.75300  0.86980  0.43600  Biso   1.000  C
  H96      1.0000 0.75130  0.87000  0.39490  Biso   1.000  H
  C227     1.0000 0.75190  0.82730  0.46800  Biso   1.000  C
  H97      1.0000 0.75120  0.79760  0.44800  Biso   1.000  H
  C228     1.0000 0.13800  0.90310  0.03120  Biso   1.000  C
  H98      1.0000 0.17020  0.91560  0.05060  Biso   1.000  H
  C229     1.0000 0.42240  0.86820  0.03090  Biso   1.000  C
  C230     1.0000 0.37780  0.88970  0.06370  Biso   1.000  C
  H99      1.0000 0.37830  0.88950  0.10490  Biso   1.000  H
  C231     1.0000 0.33110  0.91190  0.03130  Biso   1.000  C
  H100     1.0000 0.30070  0.92640  0.05180  Biso   1.000  H
  C232     1.0000 0.58930  0.16060  0.97090  Biso   1.000  C
  C233     1.0000 0.63940  0.14490  0.93590  Biso   1.000  C
  C234     1.0000 0.68480  0.12760  0.96940  Biso   1.000  C
  H101     1.0000 0.64040  0.14640  0.89480  Biso   1.000  H
  H102     1.0000 0.71710  0.11530  0.94990  Biso   1.000  H
  Zn19     1.0000 0.26532  0.51030  0.13038  Biso   1.000  Zn
  Zn20     1.0000 0.95807  0.83523  0.12781  Biso   1.000  Zn
  Zn21     1.0000 0.00325  0.67113  0.37269  Biso   1.000  Zn
  N19      1.0000 0.26152  0.53852  0.04829  Biso   1.000  N
  O109     1.0000 0.27281  0.55625  0.19611  Biso   1.000  O
  O110     1.0000 0.12496  0.66251  0.43984  Biso   1.000  O
  O111     1.0000 0.16869  0.92853  0.43751  Biso   1.000  O
  C235     1.0000 0.28200  0.62625  0.35989  Biso   1.000  C
  O112     1.0000 0.33711  0.65693  0.43947  Biso   1.000  O
  O113     1.0000 0.04172  0.32954  0.30341  Biso   1.000  O
  O114     1.0000 0.06027  0.23431  0.12863  Biso   1.000  O
  O115     1.0000 0.16430  0.97107  0.35528  Biso   1.000  O
  C236     1.0000 0.13850  0.34763  0.10992  Biso   1.000  C
  H103     1.0000 0.15360  0.34350  0.07210  Biso   1.000  H
  O116     1.0000 0.08269  0.76020  0.44279  Biso   1.000  O
  O117     1.0000 0.00306  0.83732  0.19738  Biso   1.000  O
  O118     1.0000 0.38386  0.63307  0.35896  Biso   1.000  O
  O119     1.0000 0.02309  0.74032  0.37087  Biso   1.000  O
  O120     1.0000 0.07626  0.63815  0.36004  Biso   1.000  O
  N20      1.0000 0.49305  0.65191  0.45092  Biso   1.000  N
  C237     1.0000 0.17720  0.60898  0.30426  Biso   1.000  C
  H104     1.0000 0.14220  0.60320  0.28530  Biso   1.000  H
  O121     1.0000 0.12069  0.25419  0.05792  Biso   1.000  O
  C238     1.0000 0.17740  0.62919  0.36039  Biso   1.000  C
  C239     1.0000 0.10152  0.85317  0.39148  Biso   1.000  C
  H105     1.0000 0.11700  0.84860  0.42900  Biso   1.000  H
  C240     1.0000 0.23044  0.63723  0.38885  Biso   1.000  C
  H106     1.0000 0.23120  0.64990  0.42710  Biso   1.000  H
  C241     1.0000 0.11230  0.89671  0.36038  Biso   1.000  C
  C242     1.0000 0.33910  0.63975  0.38890  Biso   1.000  C
  C243     1.0000 0.04270  0.82405  0.30970  Biso   1.000  C
  H107     1.0000 0.01950  0.80000  0.29290  Biso   1.000  H
  C244     1.0000 0.28070  0.60540  0.30408  Biso   1.000  C
  H108     1.0000 0.31510  0.59680  0.28550  Biso   1.000  H
  C245     1.0000 0.12200  0.64425  0.38990  Biso   1.000  C
  C246     1.0000 0.10480  0.31091  0.13453  Biso   1.000  C
  C247     1.0000 0.08180  0.31758  0.19050  Biso   1.000  C
  H109     1.0000 0.05990  0.29290  0.20780  Biso   1.000  H
  C248     1.0000 0.12530  0.39711  0.19640  Biso   1.000  C
  H110     1.0000 0.13170  0.42600  0.21720  Biso   1.000  H
  C249     1.0000 0.05280  0.86735  0.27923  Biso   1.000  C
  C250     1.0000 0.08820  0.90291  0.30393  Biso   1.000  C
  H111     1.0000 0.09610  0.93130  0.28270  Biso   1.000  H
  N21      1.0000 0.96846  0.65947  0.45110  Biso   1.000  N
  C251     1.0000 0.06410  0.36820  0.28130  Biso   1.000  C
  C252     1.0000 0.22600  0.57379  0.21470  Biso   1.000  C
  C253     1.0000 0.22881  0.59720  0.27566  Biso   1.000  C
  O122     1.0000 0.03330  0.91408  0.19261  Biso   1.000  O
  O123     1.0000 0.18029  0.57267  0.18804  Biso   1.000  O
  C254     1.0000 0.09110  0.36079  0.22085  Biso   1.000  C
  C255     1.0000 0.15130  0.93486  0.38732  Biso   1.000  C
  C256     1.0000 0.02790  0.87520  0.21860  Biso   1.000  C
  C257     1.0000 0.06710  0.81651  0.36557  Biso   1.000  C
  C258     1.0000 0.15020  0.39060  0.14081  Biso   1.000  C
  O124     1.0000 0.06570  0.40740  0.30665  Biso   1.000  O
  C259     1.0000 0.05670  0.76830  0.39620  Biso   1.000  C
  C260     1.0000 0.09370  0.26248  0.10440  Biso   1.000  C
  C261     1.0000 0.54370  0.63220  0.46850  Biso   1.000  C
  C262     1.0000 0.25680  0.58689  0.03044  Biso   1.000  C
  C263     1.0000 0.59190  0.61490  0.43400  Biso   1.000  C
  H112     1.0000 0.59250  0.61540  0.39280  Biso   1.000  H
  O125     1.0000 0.20112  0.42686  0.06195  Biso   1.000  O
  O126     1.0000 0.20445  0.46290  0.14889  Biso   1.000  O
  C264     1.0000 0.18730  0.42970  0.11490  Biso   1.000  C
  C265     1.0000 0.25300  0.63020  0.06400  Biso   1.000  C
  H113     1.0000 0.25130  0.63000  0.10510  Biso   1.000  H
  C266     1.0000 0.25190  0.67270  0.03200  Biso   1.000  C
  H114     1.0000 0.25120  0.70240  0.05200  Biso   1.000  H
  C267     1.0000 0.63800  0.59690  0.46880  Biso   1.000  C
  H115     1.0000 0.67020  0.58440  0.44940  Biso   1.000  H
  C268     1.0000 0.92240  0.63180  0.46910  Biso   1.000  C
  C269     1.0000 0.87780  0.61030  0.43630  Biso   1.000  C
  H116     1.0000 0.87830  0.61050  0.39510  Biso   1.000  H
  C270     1.0000 0.83110  0.58810  0.46870  Biso   1.000  C
  H117     1.0000 0.80070  0.57360  0.44820  Biso   1.000  H
  C271     1.0000 0.08930  0.33940  0.52910  Biso   1.000  C
  C272     1.0000 0.13940  0.35510  0.56410  Biso   1.000  C
  C273     1.0000 0.18480  0.37240  0.53060  Biso   1.000  C
  H118     1.0000 0.14040  0.35360  0.60520  Biso   1.000  H
  H119     1.0000 0.21710  0.38470  0.55010  Biso   1.000  H
  Zn22     1.0000 0.73468  0.48970  0.13038  Biso   1.000  Zn
  Zn23     1.0000 0.04193  0.16477  0.12781  Biso   1.000  Zn
  Zn24     1.0000 0.99675  0.32887  0.37269  Biso   1.000  Zn
  N22      1.0000 0.73848  0.46148  0.04829  Biso   1.000  N
  O127     1.0000 0.72719  0.44375  0.19611  Biso   1.000  O
  O128     1.0000 0.87504  0.33749  0.43984  Biso   1.000  O
  O129     1.0000 0.83131  0.07147  0.43751  Biso   1.000  O
  C274     1.0000 0.71800  0.37375  0.35989  Biso   1.000  C
  O130     1.0000 0.66289  0.34307  0.43947  Biso   1.000  O
  O131     1.0000 0.95828  0.67046  0.30341  Biso   1.000  O
  O132     1.0000 0.93973  0.76569  0.12863  Biso   1.000  O
  O133     1.0000 0.83570  0.02893  0.35528  Biso   1.000  O
  C275     1.0000 0.86150  0.65237  0.10992  Biso   1.000  C
  H120     1.0000 0.84640  0.65650  0.07210  Biso   1.000  H
  O134     1.0000 0.91731  0.23980  0.44279  Biso   1.000  O
  O135     1.0000 0.99694  0.16268  0.19738  Biso   1.000  O
  O136     1.0000 0.61614  0.36693  0.35896  Biso   1.000  O
  O137     1.0000 0.97691  0.25968  0.37087  Biso   1.000  O
  O138     1.0000 0.92374  0.36185  0.36004  Biso   1.000  O
  N23      1.0000 0.50695  0.34809  0.45092  Biso   1.000  N
  C276     1.0000 0.82280  0.39102  0.30426  Biso   1.000  C
  H121     1.0000 0.85780  0.39680  0.28530  Biso   1.000  H
  O139     1.0000 0.87931  0.74581  0.05792  Biso   1.000  O
  C277     1.0000 0.82260  0.37081  0.36039  Biso   1.000  C
  C278     1.0000 0.89848  0.14683  0.39148  Biso   1.000  C
  H122     1.0000 0.88300  0.15140  0.42900  Biso   1.000  H
  C279     1.0000 0.76956  0.36277  0.38885  Biso   1.000  C
  H123     1.0000 0.76880  0.35010  0.42710  Biso   1.000  H
  C280     1.0000 0.88770  0.10329  0.36038  Biso   1.000  C
  C281     1.0000 0.66090  0.36025  0.38890  Biso   1.000  C
  C282     1.0000 0.95730  0.17595  0.30970  Biso   1.000  C
  H124     1.0000 0.98050  0.20000  0.29290  Biso   1.000  H
  C283     1.0000 0.71930  0.39460  0.30408  Biso   1.000  C
  H125     1.0000 0.68490  0.40320  0.28550  Biso   1.000  H
  C284     1.0000 0.87800  0.35575  0.38990  Biso   1.000  C
  C285     1.0000 0.89520  0.68909  0.13453  Biso   1.000  C
  C286     1.0000 0.91820  0.68242  0.19050  Biso   1.000  C
  H126     1.0000 0.94010  0.70710  0.20780  Biso   1.000  H
  C287     1.0000 0.87470  0.60289  0.19640  Biso   1.000  C
  H127     1.0000 0.86830  0.57400  0.21720  Biso   1.000  H
  C288     1.0000 0.94720  0.13265  0.27923  Biso   1.000  C
  C289     1.0000 0.91180  0.09709  0.30393  Biso   1.000  C
  H128     1.0000 0.90390  0.06870  0.28270  Biso   1.000  H
  N24      1.0000 0.03154  0.34053  0.45110  Biso   1.000  N
  C290     1.0000 0.93590  0.63180  0.28130  Biso   1.000  C
  C291     1.0000 0.77400  0.42621  0.21470  Biso   1.000  C
  C292     1.0000 0.77119  0.40280  0.27566  Biso   1.000  C
  O140     1.0000 0.96670  0.08592  0.19261  Biso   1.000  O
  O141     1.0000 0.81971  0.42733  0.18804  Biso   1.000  O
  C293     1.0000 0.90890  0.63921  0.22085  Biso   1.000  C
  C294     1.0000 0.84870  0.06514  0.38732  Biso   1.000  C
  C295     1.0000 0.97210  0.12480  0.21860  Biso   1.000  C
  C296     1.0000 0.93290  0.18349  0.36557  Biso   1.000  C
  C297     1.0000 0.84980  0.60940  0.14081  Biso   1.000  C
  O142     1.0000 0.93430  0.59260  0.30665  Biso   1.000  O
  C298     1.0000 0.94330  0.23170  0.39620  Biso   1.000  C
  C299     1.0000 0.90630  0.73752  0.10440  Biso   1.000  C
  C300     1.0000 0.45630  0.36780  0.46850  Biso   1.000  C
  C301     1.0000 0.74320  0.41311  0.03044  Biso   1.000  C
  C302     1.0000 0.40810  0.38510  0.43400  Biso   1.000  C
  H129     1.0000 0.40750  0.38460  0.39280  Biso   1.000  H
  O143     1.0000 0.79888  0.57314  0.06195  Biso   1.000  O
  O144     1.0000 0.79555  0.53710  0.14889  Biso   1.000  O
  C303     1.0000 0.81270  0.57030  0.11490  Biso   1.000  C
  C304     1.0000 0.74700  0.36980  0.06400  Biso   1.000  C
  H130     1.0000 0.74870  0.37000  0.10510  Biso   1.000  H
  C305     1.0000 0.74810  0.32730  0.03200  Biso   1.000  C
  H131     1.0000 0.74880  0.29760  0.05200  Biso   1.000  H
  C306     1.0000 0.36200  0.40310  0.46880  Biso   1.000  C
  H132     1.0000 0.32980  0.41560  0.44940  Biso   1.000  H
  C307     1.0000 0.07760  0.36820  0.46910  Biso   1.000  C
  C308     1.0000 0.12220  0.38970  0.43630  Biso   1.000  C
  H133     1.0000 0.12170  0.38950  0.39510  Biso   1.000  H
  C309     1.0000 0.16890  0.41190  0.46870  Biso   1.000  C
  H134     1.0000 0.19930  0.42640  0.44820  Biso   1.000  H
  C310     1.0000 0.91070  0.66060  0.52910  Biso   1.000  C
  C311     1.0000 0.86060  0.64490  0.56410  Biso   1.000  C
  C312     1.0000 0.81520  0.62760  0.53060  Biso   1.000  C
  H135     1.0000 0.85960  0.64640  0.60520  Biso   1.000  H
  H136     1.0000 0.78290  0.61530  0.55010  Biso   1.000  H
  Zn25     1.0000 0.58050  0.79654  0.00000  Biso   1.000  Zn
  Zn26     1.0000 0.88157  0.80241  0.00000  Biso   1.000  Zn
  Zn27     1.0000 0.73322  0.56886  0.00000  Biso   1.000  Zn
  N25      1.0000 0.49930  0.82972  0.00000  Biso   1.000  N
  N26      1.0000 0.96330  0.83662  0.00000  Biso   1.000  N
  Zn28     1.0000 0.41950  0.20346  0.00000  Biso   1.000  Zn
  Zn29     1.0000 0.11843  0.19759  0.00000  Biso   1.000  Zn
  Zn30     1.0000 0.26678  0.43114  0.00000  Biso   1.000  Zn
  N27      1.0000 0.50070  0.17028  0.00000  Biso   1.000  N
  N28      1.0000 0.03670  0.16338  0.00000  Biso   1.000  N
  Zn31     1.0000 0.91950  0.29654  0.50000  Biso   1.000  Zn
  Zn32     1.0000 0.61843  0.30241  0.50000  Biso   1.000  Zn
  Zn33     1.0000 0.76678  0.06886  0.50000  Biso   1.000  Zn
  N29      1.0000 0.00070  0.32972  0.50000  Biso   1.000  N
  N30      1.0000 0.53670  0.33662  0.50000  Biso   1.000  N
  Zn34     1.0000 0.08050  0.70346  0.50000  Biso   1.000  Zn
  Zn35     1.0000 0.38157  0.69759  0.50000  Biso   1.000  Zn
  Zn36     1.0000 0.23322  0.93114  0.50000  Biso   1.000  Zn
  N31      1.0000 0.99930  0.67028  0.50000  Biso   1.000  N
  N32      1.0000 0.46330  0.66338  0.50000  Biso   1.000  N
  N33      1.0000 0.76348  0.98939  0.50000  Biso   1.000  N
  N34      1.0000 0.23652  0.01061  0.50000  Biso   1.000  N
  N35      1.0000 0.73652  0.48939  0.00000  Biso   1.000  N
  N36      1.0000 0.26348  0.51061  0.00000  Biso   1.000  N
