data_image0
_cell_length_a       12.203
_cell_length_b       21.711
_cell_length_c       22.709
_cell_angle_alpha    90
_cell_angle_beta     91.74
_cell_angle_gamma    90

_symmetry_space_group_name_H-M    "P 1"
_symmetry_int_tables_number       1

loop_
  _symmetry_equiv_pos_as_xyz
  'x, y, z'

loop_
  _atom_site_label
  _atom_site_occupancy
  _atom_site_fract_x
  _atom_site_fract_y
  _atom_site_fract_z
  _atom_site_thermal_displace_type
  _atom_site_B_iso_or_equiv
  _atom_site_type_symbol
  W1       1.0000 0.67021  0.22416  0.82282  Biso   1.000  W
  W2       1.0000 0.58380  0.99520  0.67803  Biso   1.000  W
  W3       1.0000 0.95604  0.17928  0.83860  Biso   1.000  W
  W4       1.0000 0.85025  0.95254  0.69138  Biso   1.000  W
  W5       1.0000 0.49384  0.13955  0.73932  Biso   1.000  W
  W6       1.0000 0.03872  0.04408  0.78221  Biso   1.000  W
  W7       1.0000 0.77813  0.07442  0.60643  Biso   1.000  W
  W8       1.0000 0.81558  0.96243  0.84966  Biso   1.000  W
  W9       1.0000 0.69390  0.21710  0.67996  Biso   1.000  W
  W10      1.0000 0.98050  0.16160  0.69749  Biso   1.000  W
  W11      1.0000 0.74190  0.08785  0.91240  Biso   1.000  W
  W12      1.0000 0.56091  0.01021  0.83836  Biso   1.000  W
  Pr1      1.0000 0.65014  0.38421  0.58287  Biso   1.000  Pr
  Pr2      1.0000 0.13427  0.28699  0.58403  Biso   1.000  Pr
  O1       1.0000 0.44720  0.97000  0.86030  Biso   1.000  O
  O2       1.0000 0.06720  0.20350  0.65200  Biso   1.000  O
  O3       1.0000 0.68590  0.27680  0.62780  Biso   1.000  O
  O4       1.0000 0.85150  0.89690  0.88770  Biso   1.000  O
  O5       1.0000 0.33240  0.31690  0.58320  Biso   1.000  O
  O6       1.0000 0.73660  0.10720  0.98640  Biso   1.000  O
  O7       1.0000 0.66010  0.94320  0.85820  Biso   1.000  O
  O8       1.0000 0.84790  0.36370  0.59650  Biso   1.000  O
  O9       1.0000 0.98750  0.32460  0.64870  Biso   1.000  O
  O10      1.0000 0.70800  0.14630  0.62760  Biso   1.000  O
  O11      1.0000 0.49570  0.34250  0.62710  Biso   1.000  O
  O12      1.0000 0.81380  0.93570  0.77180  Biso   1.000  O
  O13      1.0000 0.94950  0.00400  0.83550  Biso   1.000  O
  O14      1.0000 0.81040  0.00990  0.92570  Biso   1.000  O
  O15      1.0000 0.08100  0.10070  0.72040  Biso   1.000  O
  O16      1.0000 0.51960  0.07260  0.68830  Biso   1.000  O
  O17      1.0000 0.67500  0.15300  0.75450  Biso   1.000  O
  O18      1.0000 0.67020  0.16090  0.87750  Biso   1.000  O
  O19      1.0000 0.74900  0.03880  0.70100  Biso   1.000  O
  O20      1.0000 0.53920  0.19740  0.68260  Biso   1.000  O
  O21      1.0000 0.87670  0.12650  0.89270  Biso   1.000  O
  O22      1.0000 0.06490  0.11050  0.84090  Biso   1.000  O
  O23      1.0000 0.59400  0.04800  0.91090  Biso   1.000  O
  O24      1.0000 0.85800  0.99610  0.62080  Biso   1.000  O
  O25      1.0000 0.72460  0.04580  0.82950  Biso   1.000  O
  O26      1.0000 0.90690  0.11050  0.64260  Biso   1.000  O
  O27      1.0000 0.52000  0.20330  0.80090  Biso   1.000  O
  O28      1.0000 0.84900  0.21010  0.69060  Biso   1.000  O
  O29      1.0000 0.67980  0.26800  0.74680  Biso   1.000  O
  O30      1.0000 0.82680  0.22330  0.82890  Biso   1.000  O
  O31      1.0000 0.49930  0.08200  0.80320  Biso   1.000  O
  O32      1.0000 0.56100  0.97990  0.75660  Biso   1.000  O
  O33      1.0000 0.64200  0.03260  0.60490  Biso   1.000  O
  O34      1.0000 0.89900  0.11340  0.77070  Biso   1.000  O
  O35      1.0000 0.96860  0.99470  0.72280  Biso   1.000  O
  O36      1.0000 0.01000  0.20580  0.76780  Biso   1.000  O
  O37      1.0000 0.69730  0.93210  0.67390  Biso   1.000  O
  C1       1.0000 0.34900  0.31280  0.68850  Biso   1.000  C
  C2       1.0000 0.39700  0.32590  0.62970  Biso   1.000  C
  C3       1.0000 0.89400  0.35040  0.64370  Biso   1.000  C
  C4       1.0000 0.83700  0.36580  0.70130  Biso   1.000  C
  C5       1.0000 0.26500  0.29170  0.79270  Biso   1.000  C
  H1       1.0000 0.23210  0.28560  0.82860  Biso   1.000  H
  C6       1.0000 0.88700  0.35750  0.75750  Biso   1.000  C
  H2       1.0000 0.95680  0.34020  0.76140  Biso   1.000  H
  C7       1.0000 0.20600  0.28360  0.74170  Biso   1.000  C
  H3       1.0000 0.13350  0.27000  0.74440  Biso   1.000  H
  C8       1.0000 0.68700  0.40780  0.74170  Biso   1.000  C
  H4       1.0000 0.61690  0.42500  0.73810  Biso   1.000  H
  C9       1.0000 0.73600  0.39860  0.79890  Biso   1.000  C
  H5       1.0000 0.69840  0.40940  0.83250  Biso   1.000  H
  C10      1.0000 0.41500  0.32030  0.74220  Biso   1.000  C
  H6       1.0000 0.48750  0.33320  0.74130  Biso   1.000  H
  N1       1.0000 0.24410  0.29390  0.68770  Biso   1.000  N
  N2       1.0000 0.73960  0.39220  0.69330  Biso   1.000  N
  N3       1.0000 0.83500  0.37420  0.80330  Biso   1.000  N
  N4       1.0000 0.36800  0.30810  0.79170  Biso   1.000  N
  W13      1.0000 0.96770  0.16200  0.67890  Biso   1.000  W
  W14      1.0000 0.76020  0.10650  0.90700  Biso   1.000  W
  W15      1.0000 0.55090  0.01710  0.82000  Biso   1.000  W
  W16      1.0000 0.71780  0.21400  0.66490  Biso   1.000  W
  W17      1.0000 0.32979  0.72416  0.67718  Biso   1.000  W
  W18      1.0000 0.41620  0.49520  0.82197  Biso   1.000  W
  W19      1.0000 0.04396  0.67928  0.66140  Biso   1.000  W
  W20      1.0000 0.14975  0.45254  0.80862  Biso   1.000  W
  W21      1.0000 0.50616  0.63955  0.76068  Biso   1.000  W
  W22      1.0000 0.96128  0.54408  0.71779  Biso   1.000  W
  W23      1.0000 0.22187  0.57442  0.89357  Biso   1.000  W
  W24      1.0000 0.18442  0.46243  0.65034  Biso   1.000  W
  W25      1.0000 0.30610  0.71710  0.82004  Biso   1.000  W
  W26      1.0000 0.01950  0.66160  0.80251  Biso   1.000  W
  W27      1.0000 0.25810  0.58785  0.58760  Biso   1.000  W
  W28      1.0000 0.43909  0.51021  0.66164  Biso   1.000  W
  Pr3      1.0000 0.34986  0.88421  0.91713  Biso   1.000  Pr
  Pr4      1.0000 0.86573  0.78699  0.91597  Biso   1.000  Pr
  O38      1.0000 0.55280  0.47000  0.63970  Biso   1.000  O
  O39      1.0000 0.93280  0.70350  0.84800  Biso   1.000  O
  O40      1.0000 0.31410  0.77680  0.87220  Biso   1.000  O
  O41      1.0000 0.14850  0.39690  0.61230  Biso   1.000  O
  O42      1.0000 0.66760  0.81690  0.91680  Biso   1.000  O
  O43      1.0000 0.26340  0.60720  0.51360  Biso   1.000  O
  O44      1.0000 0.33990  0.44320  0.64180  Biso   1.000  O
  O45      1.0000 0.15210  0.86370  0.90350  Biso   1.000  O
  O46      1.0000 0.01250  0.82460  0.85130  Biso   1.000  O
  O47      1.0000 0.29200  0.64630  0.87240  Biso   1.000  O
  O48      1.0000 0.50430  0.84250  0.87290  Biso   1.000  O
  O49      1.0000 0.18620  0.43570  0.72820  Biso   1.000  O
  O50      1.0000 0.05050  0.50400  0.66450  Biso   1.000  O
  O51      1.0000 0.18960  0.50990  0.57430  Biso   1.000  O
  O52      1.0000 0.91900  0.60070  0.77960  Biso   1.000  O
  O53      1.0000 0.48040  0.57260  0.81170  Biso   1.000  O
  O54      1.0000 0.32500  0.65300  0.74550  Biso   1.000  O
  O55      1.0000 0.32980  0.66090  0.62250  Biso   1.000  O
  O56      1.0000 0.25100  0.53880  0.79900  Biso   1.000  O
  O57      1.0000 0.46080  0.69740  0.81740  Biso   1.000  O
  O58      1.0000 0.12330  0.62650  0.60730  Biso   1.000  O
  O59      1.0000 0.93510  0.61050  0.65910  Biso   1.000  O
  O60      1.0000 0.40600  0.54800  0.58910  Biso   1.000  O
  O61      1.0000 0.14200  0.49610  0.87920  Biso   1.000  O
  O62      1.0000 0.27540  0.54580  0.67050  Biso   1.000  O
  O63      1.0000 0.09310  0.61050  0.85740  Biso   1.000  O
  O64      1.0000 0.48000  0.70330  0.69910  Biso   1.000  O
  O65      1.0000 0.15100  0.71010  0.80940  Biso   1.000  O
  O66      1.0000 0.32020  0.76800  0.75320  Biso   1.000  O
  O67      1.0000 0.17320  0.72330  0.67110  Biso   1.000  O
  O68      1.0000 0.50070  0.58200  0.69680  Biso   1.000  O
  O69      1.0000 0.43900  0.47990  0.74340  Biso   1.000  O
  O70      1.0000 0.35800  0.53260  0.89510  Biso   1.000  O
  O71      1.0000 0.10100  0.61340  0.72930  Biso   1.000  O
  O72      1.0000 0.03140  0.49470  0.77720  Biso   1.000  O
  O73      1.0000 0.99000  0.70580  0.73220  Biso   1.000  O
  O74      1.0000 0.30270  0.43210  0.82610  Biso   1.000  O
  C11      1.0000 0.65100  0.81280  0.81150  Biso   1.000  C
  C12      1.0000 0.60300  0.82590  0.87030  Biso   1.000  C
  C13      1.0000 0.10600  0.85040  0.85630  Biso   1.000  C
  C14      1.0000 0.16300  0.86580  0.79870  Biso   1.000  C
  C15      1.0000 0.73500  0.79170  0.70730  Biso   1.000  C
  H7       1.0000 0.76790  0.78560  0.67140  Biso   1.000  H
  C16      1.0000 0.11300  0.85750  0.74250  Biso   1.000  C
  H8       1.0000 0.04320  0.84020  0.73860  Biso   1.000  H
  C17      1.0000 0.79400  0.78360  0.75830  Biso   1.000  C
  H9       1.0000 0.86650  0.77000  0.75560  Biso   1.000  H
  C18      1.0000 0.31300  0.90780  0.75830  Biso   1.000  C
  H10      1.0000 0.38310  0.92500  0.76190  Biso   1.000  H
  C19      1.0000 0.26400  0.89860  0.70110  Biso   1.000  C
  H11      1.0000 0.30160  0.90940  0.66750  Biso   1.000  H
  C20      1.0000 0.58500  0.82030  0.75780  Biso   1.000  C
  H12      1.0000 0.51250  0.83320  0.75870  Biso   1.000  H
  N5       1.0000 0.75590  0.79390  0.81230  Biso   1.000  N
  N6       1.0000 0.26040  0.89220  0.80670  Biso   1.000  N
  N7       1.0000 0.16500  0.87420  0.69670  Biso   1.000  N
  N8       1.0000 0.63200  0.80810  0.70830  Biso   1.000  N
  W29      1.0000 0.03230  0.66200  0.82110  Biso   1.000  W
  W30      1.0000 0.23980  0.60650  0.59300  Biso   1.000  W
  W31      1.0000 0.44910  0.51710  0.68000  Biso   1.000  W
  W32      1.0000 0.28220  0.71400  0.83510  Biso   1.000  W
  W33      1.0000 0.32979  0.77584  0.17718  Biso   1.000  W
  W34      1.0000 0.41620  0.00480  0.32197  Biso   1.000  W
  W35      1.0000 0.04396  0.82072  0.16140  Biso   1.000  W
  W36      1.0000 0.14975  0.04746  0.30862  Biso   1.000  W
  W37      1.0000 0.50616  0.86045  0.26068  Biso   1.000  W
  W38      1.0000 0.96128  0.95592  0.21779  Biso   1.000  W
  W39      1.0000 0.22187  0.92558  0.39357  Biso   1.000  W
  W40      1.0000 0.18442  0.03757  0.15034  Biso   1.000  W
  W41      1.0000 0.30610  0.78290  0.32004  Biso   1.000  W
  W42      1.0000 0.01950  0.83840  0.30251  Biso   1.000  W
  W43      1.0000 0.25810  0.91215  0.08760  Biso   1.000  W
  W44      1.0000 0.43909  0.98979  0.16164  Biso   1.000  W
  Pr5      1.0000 0.34986  0.61579  0.41713  Biso   1.000  Pr
  Pr6      1.0000 0.86573  0.71301  0.41597  Biso   1.000  Pr
  O75      1.0000 0.55280  0.03000  0.13970  Biso   1.000  O
  O76      1.0000 0.93280  0.79650  0.34800  Biso   1.000  O
  O77      1.0000 0.31410  0.72320  0.37220  Biso   1.000  O
  O78      1.0000 0.14850  0.10310  0.11230  Biso   1.000  O
  O79      1.0000 0.66760  0.68310  0.41680  Biso   1.000  O
  O80      1.0000 0.26340  0.89280  0.01360  Biso   1.000  O
  O81      1.0000 0.33990  0.05680  0.14180  Biso   1.000  O
  O82      1.0000 0.15210  0.63630  0.40350  Biso   1.000  O
  O83      1.0000 0.01250  0.67540  0.35130  Biso   1.000  O
  O84      1.0000 0.29200  0.85370  0.37240  Biso   1.000  O
  O85      1.0000 0.50430  0.65750  0.37290  Biso   1.000  O
  O86      1.0000 0.18620  0.06430  0.22820  Biso   1.000  O
  O87      1.0000 0.05050  0.99600  0.16450  Biso   1.000  O
  O88      1.0000 0.18960  0.99010  0.07430  Biso   1.000  O
  O89      1.0000 0.91900  0.89930  0.27960  Biso   1.000  O
  O90      1.0000 0.48040  0.92740  0.31170  Biso   1.000  O
  O91      1.0000 0.32500  0.84700  0.24550  Biso   1.000  O
  O92      1.0000 0.32980  0.83910  0.12250  Biso   1.000  O
  O93      1.0000 0.25100  0.96120  0.29900  Biso   1.000  O
  O94      1.0000 0.46080  0.80260  0.31740  Biso   1.000  O
  O95      1.0000 0.12330  0.87350  0.10730  Biso   1.000  O
  O96      1.0000 0.93510  0.88950  0.15910  Biso   1.000  O
  O97      1.0000 0.40600  0.95200  0.08910  Biso   1.000  O
  O98      1.0000 0.14200  0.00390  0.37920  Biso   1.000  O
  O99      1.0000 0.27540  0.95420  0.17050  Biso   1.000  O
  O100     1.0000 0.09310  0.88950  0.35740  Biso   1.000  O
  O101     1.0000 0.48000  0.79670  0.19910  Biso   1.000  O
  O102     1.0000 0.15100  0.78990  0.30940  Biso   1.000  O
  O103     1.0000 0.32020  0.73200  0.25320  Biso   1.000  O
  O104     1.0000 0.17320  0.77670  0.17110  Biso   1.000  O
  O105     1.0000 0.50070  0.91800  0.19680  Biso   1.000  O
  O106     1.0000 0.43900  0.02010  0.24340  Biso   1.000  O
  O107     1.0000 0.35800  0.96740  0.39510  Biso   1.000  O
  O108     1.0000 0.10100  0.88660  0.22930  Biso   1.000  O
  O109     1.0000 0.03140  0.00530  0.27720  Biso   1.000  O
  O110     1.0000 0.99000  0.79420  0.23220  Biso   1.000  O
  O111     1.0000 0.30270  0.06790  0.32610  Biso   1.000  O
  C21      1.0000 0.65100  0.68720  0.31150  Biso   1.000  C
  C22      1.0000 0.60300  0.67410  0.37030  Biso   1.000  C
  C23      1.0000 0.10600  0.64960  0.35630  Biso   1.000  C
  C24      1.0000 0.16300  0.63420  0.29870  Biso   1.000  C
  C25      1.0000 0.73500  0.70830  0.20730  Biso   1.000  C
  H13      1.0000 0.76790  0.71440  0.17140  Biso   1.000  H
  C26      1.0000 0.11300  0.64250  0.24250  Biso   1.000  C
  H14      1.0000 0.04320  0.65980  0.23860  Biso   1.000  H
  C27      1.0000 0.79400  0.71640  0.25830  Biso   1.000  C
  H15      1.0000 0.86650  0.73000  0.25560  Biso   1.000  H
  C28      1.0000 0.31300  0.59220  0.25830  Biso   1.000  C
  H16      1.0000 0.38310  0.57500  0.26190  Biso   1.000  H
  C29      1.0000 0.26400  0.60140  0.20110  Biso   1.000  C
  H17      1.0000 0.30160  0.59060  0.16750  Biso   1.000  H
  C30      1.0000 0.58500  0.67970  0.25780  Biso   1.000  C
  H18      1.0000 0.51250  0.66680  0.25870  Biso   1.000  H
  N9       1.0000 0.75590  0.70610  0.31230  Biso   1.000  N
  N10      1.0000 0.26040  0.60780  0.30670  Biso   1.000  N
  N11      1.0000 0.16500  0.62580  0.19670  Biso   1.000  N
  N12      1.0000 0.63200  0.69190  0.20830  Biso   1.000  N
  W45      1.0000 0.03230  0.83800  0.32110  Biso   1.000  W
  W46      1.0000 0.23980  0.89350  0.09300  Biso   1.000  W
  W47      1.0000 0.44910  0.98290  0.18000  Biso   1.000  W
  W48      1.0000 0.28220  0.78600  0.33510  Biso   1.000  W
  W49      1.0000 0.67021  0.27584  0.32282  Biso   1.000  W
  W50      1.0000 0.58380  0.50480  0.17803  Biso   1.000  W
  W51      1.0000 0.95604  0.32072  0.33860  Biso   1.000  W
  W52      1.0000 0.85025  0.54746  0.19138  Biso   1.000  W
  W53      1.0000 0.49384  0.36045  0.23932  Biso   1.000  W
  W54      1.0000 0.03872  0.45592  0.28221  Biso   1.000  W
  W55      1.0000 0.77813  0.42558  0.10643  Biso   1.000  W
  W56      1.0000 0.81558  0.53757  0.34966  Biso   1.000  W
  W57      1.0000 0.69390  0.28290  0.17996  Biso   1.000  W
  W58      1.0000 0.98050  0.33840  0.19749  Biso   1.000  W
  W59      1.0000 0.74190  0.41215  0.41240  Biso   1.000  W
  W60      1.0000 0.56091  0.48979  0.33836  Biso   1.000  W
  Pr7      1.0000 0.65014  0.11579  0.08287  Biso   1.000  Pr
  Pr8      1.0000 0.13427  0.21301  0.08403  Biso   1.000  Pr
  O112     1.0000 0.44720  0.53000  0.36030  Biso   1.000  O
  O113     1.0000 0.06720  0.29650  0.15200  Biso   1.000  O
  O114     1.0000 0.68590  0.22320  0.12780  Biso   1.000  O
  O115     1.0000 0.85150  0.60310  0.38770  Biso   1.000  O
  O116     1.0000 0.33240  0.18310  0.08320  Biso   1.000  O
  O117     1.0000 0.73660  0.39280  0.48640  Biso   1.000  O
  O118     1.0000 0.66010  0.55680  0.35820  Biso   1.000  O
  O119     1.0000 0.84790  0.13630  0.09650  Biso   1.000  O
  O120     1.0000 0.98750  0.17540  0.14870  Biso   1.000  O
  O121     1.0000 0.70800  0.35370  0.12760  Biso   1.000  O
  O122     1.0000 0.49570  0.15750  0.12710  Biso   1.000  O
  O123     1.0000 0.81380  0.56430  0.27180  Biso   1.000  O
  O124     1.0000 0.94950  0.49600  0.33550  Biso   1.000  O
  O125     1.0000 0.81040  0.49010  0.42570  Biso   1.000  O
  O126     1.0000 0.08100  0.39930  0.22040  Biso   1.000  O
  O127     1.0000 0.51960  0.42740  0.18830  Biso   1.000  O
  O128     1.0000 0.67500  0.34700  0.25450  Biso   1.000  O
  O129     1.0000 0.67020  0.33910  0.37750  Biso   1.000  O
  O130     1.0000 0.74900  0.46120  0.20100  Biso   1.000  O
  O131     1.0000 0.53920  0.30260  0.18260  Biso   1.000  O
  O132     1.0000 0.87670  0.37350  0.39270  Biso   1.000  O
  O133     1.0000 0.06490  0.38950  0.34090  Biso   1.000  O
  O134     1.0000 0.59400  0.45200  0.41090  Biso   1.000  O
  O135     1.0000 0.85800  0.50390  0.12080  Biso   1.000  O
  O136     1.0000 0.72460  0.45420  0.32950  Biso   1.000  O
  O137     1.0000 0.90690  0.38950  0.14260  Biso   1.000  O
  O138     1.0000 0.52000  0.29670  0.30090  Biso   1.000  O
  O139     1.0000 0.84900  0.28990  0.19060  Biso   1.000  O
  O140     1.0000 0.67980  0.23200  0.24680  Biso   1.000  O
  O141     1.0000 0.82680  0.27670  0.32890  Biso   1.000  O
  O142     1.0000 0.49930  0.41800  0.30320  Biso   1.000  O
  O143     1.0000 0.56100  0.52010  0.25660  Biso   1.000  O
  O144     1.0000 0.64200  0.46740  0.10490  Biso   1.000  O
  O145     1.0000 0.89900  0.38660  0.27070  Biso   1.000  O
  O146     1.0000 0.96860  0.50530  0.22280  Biso   1.000  O
  O147     1.0000 0.01000  0.29420  0.26780  Biso   1.000  O
  O148     1.0000 0.69730  0.56790  0.17390  Biso   1.000  O
  C31      1.0000 0.34900  0.18720  0.18850  Biso   1.000  C
  C32      1.0000 0.39700  0.17410  0.12970  Biso   1.000  C
  C33      1.0000 0.89400  0.14960  0.14370  Biso   1.000  C
  C34      1.0000 0.83700  0.13420  0.20130  Biso   1.000  C
  C35      1.0000 0.26500  0.20830  0.29270  Biso   1.000  C
  H19      1.0000 0.23210  0.21440  0.32860  Biso   1.000  H
  C36      1.0000 0.88700  0.14250  0.25750  Biso   1.000  C
  H20      1.0000 0.95680  0.15980  0.26140  Biso   1.000  H
  C37      1.0000 0.20600  0.21640  0.24170  Biso   1.000  C
  H21      1.0000 0.13350  0.23000  0.24440  Biso   1.000  H
  C38      1.0000 0.68700  0.09220  0.24170  Biso   1.000  C
  H22      1.0000 0.61690  0.07500  0.23810  Biso   1.000  H
  C39      1.0000 0.73600  0.10140  0.29890  Biso   1.000  C
  H23      1.0000 0.69840  0.09060  0.33250  Biso   1.000  H
  C40      1.0000 0.41500  0.17970  0.24220  Biso   1.000  C
  H24      1.0000 0.48750  0.16680  0.24130  Biso   1.000  H
  N13      1.0000 0.24410  0.20610  0.18770  Biso   1.000  N
  N14      1.0000 0.73960  0.10780  0.19330  Biso   1.000  N
  N15      1.0000 0.83500  0.12580  0.30330  Biso   1.000  N
  N16      1.0000 0.36800  0.19190  0.29170  Biso   1.000  N
  W61      1.0000 0.96770  0.33800  0.17890  Biso   1.000  W
  W62      1.0000 0.76020  0.39350  0.40700  Biso   1.000  W
  W63      1.0000 0.55090  0.48290  0.32000  Biso   1.000  W
  W64      1.0000 0.71780  0.28600  0.16490  Biso   1.000  W
