data_image0
_cell_length_a       19.455
_cell_length_b       30.389
_cell_length_c       24.23
_cell_angle_alpha    90
_cell_angle_beta     90
_cell_angle_gamma    90

_symmetry_space_group_name_H-M    "P 1"
_symmetry_int_tables_number       1

loop_
  _symmetry_equiv_pos_as_xyz
  'x, y, z'

loop_
  _atom_site_label
  _atom_site_occupancy
  _atom_site_fract_x
  _atom_site_fract_y
  _atom_site_fract_z
  _atom_site_thermal_displace_type
  _atom_site_B_iso_or_equiv
  _atom_site_type_symbol
  O1       1.0000 0.15812  0.24943  0.43896  Biso   1.000  O
  O2       1.0000 0.22740  0.30680  0.44150  Biso   1.000  O
  O3       1.0000 0.14250  0.53590  0.06920  Biso   1.000  O
  O4       1.0000 0.22580  0.48866  0.07120  Biso   1.000  O
  O5       1.0000 0.21972  0.08901  0.44044  Biso   1.000  O
  O6       1.0000 0.14401  0.14389  0.43598  Biso   1.000  O
  C1       1.0000 0.05694  0.34999  0.29673  Biso   1.000  C
  C2       1.0000 0.11460  0.37032  0.32025  Biso   1.000  C
  H1       1.0000 0.12640  0.39860  0.30920  Biso   1.000  H
  C3       1.0000 0.03850  0.30898  0.31623  Biso   1.000  C
  H2       1.0000 0.99950  0.29530  0.30240  Biso   1.000  H
  C4       1.0000 0.07830  0.28755  0.35697  Biso   1.000  C
  H3       1.0000 0.06560  0.25980  0.36950  Biso   1.000  H
  C5       1.0000 0.15420  0.34940  0.35934  Biso   1.000  C
  H4       1.0000 0.19320  0.36320  0.37310  Biso   1.000  H
  C6       1.0000 0.13640  0.30799  0.37837  Biso   1.000  C
  C7       1.0000 0.17690  0.28661  0.42273  Biso   1.000  C
  C8       1.0000 0.05320  0.41904  0.20319  Biso   1.000  C
  C9       1.0000 0.02710  0.46130  0.18220  Biso   1.000  C
  C10      1.0000 0.12270  0.41040  0.18880  Biso   1.000  C
  C11      1.0000 0.06210  0.48550  0.14240  Biso   1.000  C
  C12      1.0000 0.15910  0.43660  0.15120  Biso   1.000  C
  C13      1.0000 0.12810  0.46974  0.12570  Biso   1.000  C
  C14      1.0000 0.16480  0.49592  0.08570  Biso   1.000  C
  C15      1.0000 0.05480  0.03510  0.29658  Biso   1.000  C
  C16      1.0000 0.11720  0.02053  0.31525  Biso   1.000  C
  H5       1.0000 0.13500  0.99430  0.30150  Biso   1.000  H
  C17      1.0000 0.02920  0.07473  0.31763  Biso   1.000  C
  H6       1.0000 0.98750  0.08570  0.30490  Biso   1.000  H
  C18      1.0000 0.06620  0.09810  0.35804  Biso   1.000  C
  H7       1.0000 0.04840  0.12420  0.37200  Biso   1.000  H
  C19      1.0000 0.15530  0.04452  0.35506  Biso   1.000  C
  H8       1.0000 0.19820  0.03460  0.36640  Biso   1.000  H
  C20      1.0000 0.12800  0.08294  0.37698  Biso   1.000  C
  C21      1.0000 0.16740  0.10720  0.42111  Biso   1.000  C
  C22      1.0000 0.05150  0.40320  0.14380  Biso   1.000  C
  C23      1.0000 0.08860  0.45180  0.21720  Biso   1.000  C
  C24      1.0000 0.08810  0.43000  0.10540  Biso   1.000  C
  C25      1.0000 0.12680  0.47660  0.18000  Biso   1.000  C
  O7       1.0000 0.16450  0.48040  0.03500  Biso   1.000  O
  O8       1.0000 0.18990  0.52760  0.09590  Biso   1.000  O
  O9       1.0000 0.65812  0.74943  0.43896  Biso   1.000  O
  O10      1.0000 0.72740  0.80680  0.44150  Biso   1.000  O
  O11      1.0000 0.64250  0.03590  0.06920  Biso   1.000  O
  O12      1.0000 0.72580  0.98866  0.07120  Biso   1.000  O
  O13      1.0000 0.71972  0.58901  0.44044  Biso   1.000  O
  O14      1.0000 0.64401  0.64389  0.43598  Biso   1.000  O
  C26      1.0000 0.55694  0.84999  0.29673  Biso   1.000  C
  C27      1.0000 0.61460  0.87032  0.32025  Biso   1.000  C
  H9       1.0000 0.62640  0.89860  0.30920  Biso   1.000  H
  C28      1.0000 0.53850  0.80898  0.31623  Biso   1.000  C
  H10      1.0000 0.49950  0.79530  0.30240  Biso   1.000  H
  C29      1.0000 0.57830  0.78755  0.35697  Biso   1.000  C
  H11      1.0000 0.56560  0.75980  0.36950  Biso   1.000  H
  C30      1.0000 0.65420  0.84940  0.35934  Biso   1.000  C
  H12      1.0000 0.69320  0.86320  0.37310  Biso   1.000  H
  C31      1.0000 0.63640  0.80799  0.37837  Biso   1.000  C
  C32      1.0000 0.67690  0.78661  0.42273  Biso   1.000  C
  C33      1.0000 0.55320  0.91904  0.20319  Biso   1.000  C
  C34      1.0000 0.52710  0.96130  0.18220  Biso   1.000  C
  C35      1.0000 0.62270  0.91040  0.18880  Biso   1.000  C
  C36      1.0000 0.56210  0.98550  0.14240  Biso   1.000  C
  C37      1.0000 0.65910  0.93660  0.15120  Biso   1.000  C
  C38      1.0000 0.62810  0.96974  0.12570  Biso   1.000  C
  C39      1.0000 0.66480  0.99592  0.08570  Biso   1.000  C
  C40      1.0000 0.55480  0.53510  0.29658  Biso   1.000  C
  C41      1.0000 0.61720  0.52053  0.31525  Biso   1.000  C
  H13      1.0000 0.63500  0.49430  0.30150  Biso   1.000  H
  C42      1.0000 0.52920  0.57473  0.31763  Biso   1.000  C
  H14      1.0000 0.48750  0.58570  0.30490  Biso   1.000  H
  C43      1.0000 0.56620  0.59810  0.35804  Biso   1.000  C
  H15      1.0000 0.54840  0.62420  0.37200  Biso   1.000  H
  C44      1.0000 0.65530  0.54452  0.35506  Biso   1.000  C
  H16      1.0000 0.69820  0.53460  0.36640  Biso   1.000  H
  C45      1.0000 0.62800  0.58294  0.37698  Biso   1.000  C
  C46      1.0000 0.66740  0.60720  0.42111  Biso   1.000  C
  C47      1.0000 0.55150  0.90320  0.14380  Biso   1.000  C
  C48      1.0000 0.58860  0.95180  0.21720  Biso   1.000  C
  C49      1.0000 0.58810  0.93000  0.10540  Biso   1.000  C
  C50      1.0000 0.62680  0.97660  0.18000  Biso   1.000  C
  O15      1.0000 0.66450  0.98040  0.03500  Biso   1.000  O
  O16      1.0000 0.68990  0.02760  0.09590  Biso   1.000  O
  O17      1.0000 0.84188  0.75057  0.43896  Biso   1.000  O
  O18      1.0000 0.77260  0.69320  0.44150  Biso   1.000  O
  O19      1.0000 0.85750  0.46410  0.06920  Biso   1.000  O
  O20      1.0000 0.77420  0.51134  0.07120  Biso   1.000  O
  O21      1.0000 0.78028  0.91099  0.44044  Biso   1.000  O
  O22      1.0000 0.85599  0.85611  0.43598  Biso   1.000  O
  C51      1.0000 0.94306  0.65001  0.29673  Biso   1.000  C
  C52      1.0000 0.88540  0.62968  0.32025  Biso   1.000  C
  H17      1.0000 0.87360  0.60140  0.30920  Biso   1.000  H
  C53      1.0000 0.96150  0.69102  0.31623  Biso   1.000  C
  H18      1.0000 0.00050  0.70470  0.30240  Biso   1.000  H
  C54      1.0000 0.92170  0.71245  0.35697  Biso   1.000  C
  H19      1.0000 0.93440  0.74020  0.36950  Biso   1.000  H
  C55      1.0000 0.84580  0.65060  0.35934  Biso   1.000  C
  H20      1.0000 0.80680  0.63680  0.37310  Biso   1.000  H
  C56      1.0000 0.86360  0.69201  0.37837  Biso   1.000  C
  C57      1.0000 0.82310  0.71339  0.42273  Biso   1.000  C
  C58      1.0000 0.94680  0.58096  0.20319  Biso   1.000  C
  C59      1.0000 0.97290  0.53870  0.18220  Biso   1.000  C
  C60      1.0000 0.87730  0.58960  0.18880  Biso   1.000  C
  C61      1.0000 0.93790  0.51450  0.14240  Biso   1.000  C
  C62      1.0000 0.84090  0.56340  0.15120  Biso   1.000  C
  C63      1.0000 0.87190  0.53026  0.12570  Biso   1.000  C
  C64      1.0000 0.83520  0.50408  0.08570  Biso   1.000  C
  C65      1.0000 0.94520  0.96490  0.29658  Biso   1.000  C
  C66      1.0000 0.88280  0.97947  0.31525  Biso   1.000  C
  H21      1.0000 0.86500  0.00570  0.30150  Biso   1.000  H
  C67      1.0000 0.97080  0.92527  0.31763  Biso   1.000  C
  H22      1.0000 0.01250  0.91430  0.30490  Biso   1.000  H
  C68      1.0000 0.93380  0.90190  0.35804  Biso   1.000  C
  H23      1.0000 0.95160  0.87580  0.37200  Biso   1.000  H
  C69      1.0000 0.84470  0.95548  0.35506  Biso   1.000  C
  H24      1.0000 0.80180  0.96540  0.36640  Biso   1.000  H
  C70      1.0000 0.87200  0.91706  0.37698  Biso   1.000  C
  C71      1.0000 0.83260  0.89280  0.42111  Biso   1.000  C
  C72      1.0000 0.94850  0.59680  0.14380  Biso   1.000  C
  C73      1.0000 0.91140  0.54820  0.21720  Biso   1.000  C
  C74      1.0000 0.91190  0.57000  0.10540  Biso   1.000  C
  C75      1.0000 0.87320  0.52340  0.18000  Biso   1.000  C
  O23      1.0000 0.83550  0.51960  0.03500  Biso   1.000  O
  O24      1.0000 0.81010  0.47240  0.09590  Biso   1.000  O
  O25      1.0000 0.34188  0.25057  0.43896  Biso   1.000  O
  O26      1.0000 0.27260  0.19320  0.44150  Biso   1.000  O
  O27      1.0000 0.35750  0.96410  0.06920  Biso   1.000  O
  O28      1.0000 0.27420  0.01134  0.07120  Biso   1.000  O
  O29      1.0000 0.28028  0.41099  0.44044  Biso   1.000  O
  O30      1.0000 0.35599  0.35611  0.43598  Biso   1.000  O
  C76      1.0000 0.44306  0.15001  0.29673  Biso   1.000  C
  C77      1.0000 0.38540  0.12968  0.32025  Biso   1.000  C
  H25      1.0000 0.37360  0.10140  0.30920  Biso   1.000  H
  C78      1.0000 0.46150  0.19102  0.31623  Biso   1.000  C
  H26      1.0000 0.50050  0.20470  0.30240  Biso   1.000  H
  C79      1.0000 0.42170  0.21245  0.35697  Biso   1.000  C
  H27      1.0000 0.43440  0.24020  0.36950  Biso   1.000  H
  C80      1.0000 0.34580  0.15060  0.35934  Biso   1.000  C
  H28      1.0000 0.30680  0.13680  0.37310  Biso   1.000  H
  C81      1.0000 0.36360  0.19201  0.37837  Biso   1.000  C
  C82      1.0000 0.32310  0.21339  0.42273  Biso   1.000  C
  C83      1.0000 0.44680  0.08096  0.20319  Biso   1.000  C
  C84      1.0000 0.47290  0.03870  0.18220  Biso   1.000  C
  C85      1.0000 0.37730  0.08960  0.18880  Biso   1.000  C
  C86      1.0000 0.43790  0.01450  0.14240  Biso   1.000  C
  C87      1.0000 0.34090  0.06340  0.15120  Biso   1.000  C
  C88      1.0000 0.37190  0.03026  0.12570  Biso   1.000  C
  C89      1.0000 0.33520  0.00408  0.08570  Biso   1.000  C
  C90      1.0000 0.44520  0.46490  0.29658  Biso   1.000  C
  C91      1.0000 0.38280  0.47947  0.31525  Biso   1.000  C
  H29      1.0000 0.36500  0.50570  0.30150  Biso   1.000  H
  C92      1.0000 0.47080  0.42527  0.31763  Biso   1.000  C
  H30      1.0000 0.51250  0.41430  0.30490  Biso   1.000  H
  C93      1.0000 0.43380  0.40190  0.35804  Biso   1.000  C
  H31      1.0000 0.45160  0.37580  0.37200  Biso   1.000  H
  C94      1.0000 0.34470  0.45548  0.35506  Biso   1.000  C
  H32      1.0000 0.30180  0.46540  0.36640  Biso   1.000  H
  C95      1.0000 0.37200  0.41706  0.37698  Biso   1.000  C
  C96      1.0000 0.33260  0.39280  0.42111  Biso   1.000  C
  C97      1.0000 0.44850  0.09680  0.14380  Biso   1.000  C
  C98      1.0000 0.41140  0.04820  0.21720  Biso   1.000  C
  C99      1.0000 0.41190  0.07000  0.10540  Biso   1.000  C
  C100     1.0000 0.37320  0.02340  0.18000  Biso   1.000  C
  O31      1.0000 0.33550  0.01960  0.03500  Biso   1.000  O
  O32      1.0000 0.31010  0.97240  0.09590  Biso   1.000  O
  O33      1.0000 0.84188  0.24943  0.06104  Biso   1.000  O
  O34      1.0000 0.77260  0.30680  0.05850  Biso   1.000  O
  O35      1.0000 0.85750  0.53590  0.43080  Biso   1.000  O
  O36      1.0000 0.77420  0.48866  0.42880  Biso   1.000  O
  O37      1.0000 0.78028  0.08901  0.05956  Biso   1.000  O
  O38      1.0000 0.85599  0.14389  0.06402  Biso   1.000  O
  C101     1.0000 0.94306  0.34999  0.20327  Biso   1.000  C
  C102     1.0000 0.88540  0.37032  0.17975  Biso   1.000  C
  H33      1.0000 0.87360  0.39860  0.19080  Biso   1.000  H
  C103     1.0000 0.96150  0.30898  0.18377  Biso   1.000  C
  H34      1.0000 0.00050  0.29530  0.19760  Biso   1.000  H
  C104     1.0000 0.92170  0.28755  0.14303  Biso   1.000  C
  H35      1.0000 0.93440  0.25980  0.13050  Biso   1.000  H
  C105     1.0000 0.84580  0.34940  0.14066  Biso   1.000  C
  H36      1.0000 0.80680  0.36320  0.12690  Biso   1.000  H
  C106     1.0000 0.86360  0.30799  0.12163  Biso   1.000  C
  C107     1.0000 0.82310  0.28661  0.07727  Biso   1.000  C
  C108     1.0000 0.94680  0.41904  0.29681  Biso   1.000  C
  C109     1.0000 0.97290  0.46130  0.31780  Biso   1.000  C
  C110     1.0000 0.87730  0.41040  0.31120  Biso   1.000  C
  C111     1.0000 0.93790  0.48550  0.35760  Biso   1.000  C
  C112     1.0000 0.84090  0.43660  0.34880  Biso   1.000  C
  C113     1.0000 0.87190  0.46974  0.37430  Biso   1.000  C
  C114     1.0000 0.83520  0.49592  0.41430  Biso   1.000  C
  C115     1.0000 0.94520  0.03510  0.20342  Biso   1.000  C
  C116     1.0000 0.88280  0.02053  0.18475  Biso   1.000  C
  H37      1.0000 0.86500  0.99430  0.19850  Biso   1.000  H
  C117     1.0000 0.97080  0.07473  0.18237  Biso   1.000  C
  H38      1.0000 0.01250  0.08570  0.19510  Biso   1.000  H
  C118     1.0000 0.93380  0.09810  0.14196  Biso   1.000  C
  H39      1.0000 0.95160  0.12420  0.12800  Biso   1.000  H
  C119     1.0000 0.84470  0.04452  0.14494  Biso   1.000  C
  H40      1.0000 0.80180  0.03460  0.13360  Biso   1.000  H
  C120     1.0000 0.87200  0.08294  0.12302  Biso   1.000  C
  C121     1.0000 0.83260  0.10720  0.07889  Biso   1.000  C
  C122     1.0000 0.94850  0.40320  0.35620  Biso   1.000  C
  C123     1.0000 0.91140  0.45180  0.28280  Biso   1.000  C
  C124     1.0000 0.91190  0.43000  0.39460  Biso   1.000  C
  C125     1.0000 0.87320  0.47660  0.32000  Biso   1.000  C
  O39      1.0000 0.83550  0.48040  0.46500  Biso   1.000  O
  O40      1.0000 0.81010  0.52760  0.40410  Biso   1.000  O
  O41      1.0000 0.34188  0.74943  0.06104  Biso   1.000  O
  O42      1.0000 0.27260  0.80680  0.05850  Biso   1.000  O
  O43      1.0000 0.35750  0.03590  0.43080  Biso   1.000  O
  O44      1.0000 0.27420  0.98866  0.42880  Biso   1.000  O
  O45      1.0000 0.28028  0.58901  0.05956  Biso   1.000  O
  O46      1.0000 0.35599  0.64389  0.06402  Biso   1.000  O
  C126     1.0000 0.44306  0.84999  0.20327  Biso   1.000  C
  C127     1.0000 0.38540  0.87032  0.17975  Biso   1.000  C
  H41      1.0000 0.37360  0.89860  0.19080  Biso   1.000  H
  C128     1.0000 0.46150  0.80898  0.18377  Biso   1.000  C
  H42      1.0000 0.50050  0.79530  0.19760  Biso   1.000  H
  C129     1.0000 0.42170  0.78755  0.14303  Biso   1.000  C
  H43      1.0000 0.43440  0.75980  0.13050  Biso   1.000  H
  C130     1.0000 0.34580  0.84940  0.14066  Biso   1.000  C
  H44      1.0000 0.30680  0.86320  0.12690  Biso   1.000  H
  C131     1.0000 0.36360  0.80799  0.12163  Biso   1.000  C
  C132     1.0000 0.32310  0.78661  0.07727  Biso   1.000  C
  C133     1.0000 0.44680  0.91904  0.29681  Biso   1.000  C
  C134     1.0000 0.47290  0.96130  0.31780  Biso   1.000  C
  C135     1.0000 0.37730  0.91040  0.31120  Biso   1.000  C
  C136     1.0000 0.43790  0.98550  0.35760  Biso   1.000  C
  C137     1.0000 0.34090  0.93660  0.34880  Biso   1.000  C
  C138     1.0000 0.37190  0.96974  0.37430  Biso   1.000  C
  C139     1.0000 0.33520  0.99592  0.41430  Biso   1.000  C
  C140     1.0000 0.44520  0.53510  0.20342  Biso   1.000  C
  C141     1.0000 0.38280  0.52053  0.18475  Biso   1.000  C
  H45      1.0000 0.36500  0.49430  0.19850  Biso   1.000  H
  C142     1.0000 0.47080  0.57473  0.18237  Biso   1.000  C
  H46      1.0000 0.51250  0.58570  0.19510  Biso   1.000  H
  C143     1.0000 0.43380  0.59810  0.14196  Biso   1.000  C
  H47      1.0000 0.45160  0.62420  0.12800  Biso   1.000  H
  C144     1.0000 0.34470  0.54452  0.14494  Biso   1.000  C
  H48      1.0000 0.30180  0.53460  0.13360  Biso   1.000  H
  C145     1.0000 0.37200  0.58294  0.12302  Biso   1.000  C
  C146     1.0000 0.33260  0.60720  0.07889  Biso   1.000  C
  C147     1.0000 0.44850  0.90320  0.35620  Biso   1.000  C
  C148     1.0000 0.41140  0.95180  0.28280  Biso   1.000  C
  C149     1.0000 0.41190  0.93000  0.39460  Biso   1.000  C
  C150     1.0000 0.37320  0.97660  0.32000  Biso   1.000  C
  O47      1.0000 0.33550  0.98040  0.46500  Biso   1.000  O
  O48      1.0000 0.31010  0.02760  0.40410  Biso   1.000  O
  O49      1.0000 0.15812  0.75057  0.06104  Biso   1.000  O
  O50      1.0000 0.22740  0.69320  0.05850  Biso   1.000  O
  O51      1.0000 0.14250  0.46410  0.43080  Biso   1.000  O
  O52      1.0000 0.22580  0.51134  0.42880  Biso   1.000  O
  O53      1.0000 0.21972  0.91099  0.05956  Biso   1.000  O
  O54      1.0000 0.14401  0.85611  0.06402  Biso   1.000  O
  C151     1.0000 0.05694  0.65001  0.20327  Biso   1.000  C
  C152     1.0000 0.11460  0.62968  0.17975  Biso   1.000  C
  H49      1.0000 0.12640  0.60140  0.19080  Biso   1.000  H
  C153     1.0000 0.03850  0.69102  0.18377  Biso   1.000  C
  H50      1.0000 0.99950  0.70470  0.19760  Biso   1.000  H
  C154     1.0000 0.07830  0.71245  0.14303  Biso   1.000  C
  H51      1.0000 0.06560  0.74020  0.13050  Biso   1.000  H
  C155     1.0000 0.15420  0.65060  0.14066  Biso   1.000  C
  H52      1.0000 0.19320  0.63680  0.12690  Biso   1.000  H
  C156     1.0000 0.13640  0.69201  0.12163  Biso   1.000  C
  C157     1.0000 0.17690  0.71339  0.07727  Biso   1.000  C
  C158     1.0000 0.05320  0.58096  0.29681  Biso   1.000  C
  C159     1.0000 0.02710  0.53870  0.31780  Biso   1.000  C
  C160     1.0000 0.12270  0.58960  0.31120  Biso   1.000  C
  C161     1.0000 0.06210  0.51450  0.35760  Biso   1.000  C
  C162     1.0000 0.15910  0.56340  0.34880  Biso   1.000  C
  C163     1.0000 0.12810  0.53026  0.37430  Biso   1.000  C
  C164     1.0000 0.16480  0.50408  0.41430  Biso   1.000  C
  C165     1.0000 0.05480  0.96490  0.20342  Biso   1.000  C
  C166     1.0000 0.11720  0.97947  0.18475  Biso   1.000  C
  H53      1.0000 0.13500  0.00570  0.19850  Biso   1.000  H
  C167     1.0000 0.02920  0.92527  0.18237  Biso   1.000  C
  H54      1.0000 0.98750  0.91430  0.19510  Biso   1.000  H
  C168     1.0000 0.06620  0.90190  0.14196  Biso   1.000  C
  H55      1.0000 0.04840  0.87580  0.12800  Biso   1.000  H
  C169     1.0000 0.15530  0.95548  0.14494  Biso   1.000  C
  H56      1.0000 0.19820  0.96540  0.13360  Biso   1.000  H
  C170     1.0000 0.12800  0.91706  0.12302  Biso   1.000  C
  C171     1.0000 0.16740  0.89280  0.07889  Biso   1.000  C
  C172     1.0000 0.05150  0.59680  0.35620  Biso   1.000  C
  C173     1.0000 0.08860  0.54820  0.28280  Biso   1.000  C
  C174     1.0000 0.08810  0.57000  0.39460  Biso   1.000  C
  C175     1.0000 0.12680  0.52340  0.32000  Biso   1.000  C
  O55      1.0000 0.16450  0.51960  0.46500  Biso   1.000  O
  O56      1.0000 0.18990  0.47240  0.40410  Biso   1.000  O
  O57      1.0000 0.65812  0.25057  0.06104  Biso   1.000  O
  O58      1.0000 0.72740  0.19320  0.05850  Biso   1.000  O
  O59      1.0000 0.64250  0.96410  0.43080  Biso   1.000  O
  O60      1.0000 0.72580  0.01134  0.42880  Biso   1.000  O
  O61      1.0000 0.71972  0.41099  0.05956  Biso   1.000  O
  O62      1.0000 0.64401  0.35611  0.06402  Biso   1.000  O
  C176     1.0000 0.55694  0.15001  0.20327  Biso   1.000  C
  C177     1.0000 0.61460  0.12968  0.17975  Biso   1.000  C
  H57      1.0000 0.62640  0.10140  0.19080  Biso   1.000  H
  C178     1.0000 0.53850  0.19102  0.18377  Biso   1.000  C
  H58      1.0000 0.49950  0.20470  0.19760  Biso   1.000  H
  C179     1.0000 0.57830  0.21245  0.14303  Biso   1.000  C
  H59      1.0000 0.56560  0.24020  0.13050  Biso   1.000  H
  C180     1.0000 0.65420  0.15060  0.14066  Biso   1.000  C
  H60      1.0000 0.69320  0.13680  0.12690  Biso   1.000  H
  C181     1.0000 0.63640  0.19201  0.12163  Biso   1.000  C
  C182     1.0000 0.67690  0.21339  0.07727  Biso   1.000  C
  C183     1.0000 0.55320  0.08096  0.29681  Biso   1.000  C
  C184     1.0000 0.52710  0.03870  0.31780  Biso   1.000  C
  C185     1.0000 0.62270  0.08960  0.31120  Biso   1.000  C
  C186     1.0000 0.56210  0.01450  0.35760  Biso   1.000  C
  C187     1.0000 0.65910  0.06340  0.34880  Biso   1.000  C
  C188     1.0000 0.62810  0.03026  0.37430  Biso   1.000  C
  C189     1.0000 0.66480  0.00408  0.41430  Biso   1.000  C
  C190     1.0000 0.55480  0.46490  0.20342  Biso   1.000  C
  C191     1.0000 0.61720  0.47947  0.18475  Biso   1.000  C
  H61      1.0000 0.63500  0.50570  0.19850  Biso   1.000  H
  C192     1.0000 0.52920  0.42527  0.18237  Biso   1.000  C
  H62      1.0000 0.48750  0.41430  0.19510  Biso   1.000  H
  C193     1.0000 0.56620  0.40190  0.14196  Biso   1.000  C
  H63      1.0000 0.54840  0.37580  0.12800  Biso   1.000  H
  C194     1.0000 0.65530  0.45548  0.14494  Biso   1.000  C
  H64      1.0000 0.69820  0.46540  0.13360  Biso   1.000  H
  C195     1.0000 0.62800  0.41706  0.12302  Biso   1.000  C
  C196     1.0000 0.66740  0.39280  0.07889  Biso   1.000  C
  C197     1.0000 0.55150  0.09680  0.35620  Biso   1.000  C
  C198     1.0000 0.58860  0.04820  0.28280  Biso   1.000  C
  C199     1.0000 0.58810  0.07000  0.39460  Biso   1.000  C
  C200     1.0000 0.62680  0.02340  0.32000  Biso   1.000  C
  O63      1.0000 0.66450  0.01960  0.46500  Biso   1.000  O
  O64      1.0000 0.68990  0.97240  0.40410  Biso   1.000  O
  O65      1.0000 0.84188  0.75057  0.56104  Biso   1.000  O
  O66      1.0000 0.77260  0.69320  0.55850  Biso   1.000  O
  O67      1.0000 0.85750  0.46410  0.93080  Biso   1.000  O
  O68      1.0000 0.77420  0.51134  0.92880  Biso   1.000  O
  O69      1.0000 0.78028  0.91099  0.55956  Biso   1.000  O
  O70      1.0000 0.85599  0.85611  0.56402  Biso   1.000  O
  C201     1.0000 0.94306  0.65001  0.70327  Biso   1.000  C
  C202     1.0000 0.88540  0.62968  0.67975  Biso   1.000  C
  H65      1.0000 0.87360  0.60140  0.69080  Biso   1.000  H
  C203     1.0000 0.96150  0.69102  0.68377  Biso   1.000  C
  H66      1.0000 0.00050  0.70470  0.69760  Biso   1.000  H
  C204     1.0000 0.92170  0.71245  0.64303  Biso   1.000  C
  H67      1.0000 0.93440  0.74020  0.63050  Biso   1.000  H
  C205     1.0000 0.84580  0.65060  0.64066  Biso   1.000  C
  H68      1.0000 0.80680  0.63680  0.62690  Biso   1.000  H
  C206     1.0000 0.86360  0.69201  0.62163  Biso   1.000  C
  C207     1.0000 0.82310  0.71339  0.57727  Biso   1.000  C
  C208     1.0000 0.94680  0.58096  0.79681  Biso   1.000  C
  C209     1.0000 0.97290  0.53870  0.81780  Biso   1.000  C
  C210     1.0000 0.87730  0.58960  0.81120  Biso   1.000  C
  C211     1.0000 0.93790  0.51450  0.85760  Biso   1.000  C
  C212     1.0000 0.84090  0.56340  0.84880  Biso   1.000  C
  C213     1.0000 0.87190  0.53026  0.87430  Biso   1.000  C
  C214     1.0000 0.83520  0.50408  0.91430  Biso   1.000  C
  C215     1.0000 0.94520  0.96490  0.70342  Biso   1.000  C
  C216     1.0000 0.88280  0.97947  0.68475  Biso   1.000  C
  H69      1.0000 0.86500  0.00570  0.69850  Biso   1.000  H
  C217     1.0000 0.97080  0.92527  0.68237  Biso   1.000  C
  H70      1.0000 0.01250  0.91430  0.69510  Biso   1.000  H
  C218     1.0000 0.93380  0.90190  0.64196  Biso   1.000  C
  H71      1.0000 0.95160  0.87580  0.62800  Biso   1.000  H
  C219     1.0000 0.84470  0.95548  0.64494  Biso   1.000  C
  H72      1.0000 0.80180  0.96540  0.63360  Biso   1.000  H
  C220     1.0000 0.87200  0.91706  0.62302  Biso   1.000  C
  C221     1.0000 0.83260  0.89280  0.57889  Biso   1.000  C
  C222     1.0000 0.94850  0.59680  0.85620  Biso   1.000  C
  C223     1.0000 0.91140  0.54820  0.78280  Biso   1.000  C
  C224     1.0000 0.91190  0.57000  0.89460  Biso   1.000  C
  C225     1.0000 0.87320  0.52340  0.82000  Biso   1.000  C
  O71      1.0000 0.83550  0.51960  0.96500  Biso   1.000  O
  O72      1.0000 0.81010  0.47240  0.90410  Biso   1.000  O
  O73      1.0000 0.34188  0.25057  0.56104  Biso   1.000  O
  O74      1.0000 0.27260  0.19320  0.55850  Biso   1.000  O
  O75      1.0000 0.35750  0.96410  0.93080  Biso   1.000  O
  O76      1.0000 0.27420  0.01134  0.92880  Biso   1.000  O
  O77      1.0000 0.28028  0.41099  0.55956  Biso   1.000  O
  O78      1.0000 0.35599  0.35611  0.56402  Biso   1.000  O
  C226     1.0000 0.44306  0.15001  0.70327  Biso   1.000  C
  C227     1.0000 0.38540  0.12968  0.67975  Biso   1.000  C
  H73      1.0000 0.37360  0.10140  0.69080  Biso   1.000  H
  C228     1.0000 0.46150  0.19102  0.68377  Biso   1.000  C
  H74      1.0000 0.50050  0.20470  0.69760  Biso   1.000  H
  C229     1.0000 0.42170  0.21245  0.64303  Biso   1.000  C
  H75      1.0000 0.43440  0.24020  0.63050  Biso   1.000  H
  C230     1.0000 0.34580  0.15060  0.64066  Biso   1.000  C
  H76      1.0000 0.30680  0.13680  0.62690  Biso   1.000  H
  C231     1.0000 0.36360  0.19201  0.62163  Biso   1.000  C
  C232     1.0000 0.32310  0.21339  0.57727  Biso   1.000  C
  C233     1.0000 0.44680  0.08096  0.79681  Biso   1.000  C
  C234     1.0000 0.47290  0.03870  0.81780  Biso   1.000  C
  C235     1.0000 0.37730  0.08960  0.81120  Biso   1.000  C
  C236     1.0000 0.43790  0.01450  0.85760  Biso   1.000  C
  C237     1.0000 0.34090  0.06340  0.84880  Biso   1.000  C
  C238     1.0000 0.37190  0.03026  0.87430  Biso   1.000  C
  C239     1.0000 0.33520  0.00408  0.91430  Biso   1.000  C
  C240     1.0000 0.44520  0.46490  0.70342  Biso   1.000  C
  C241     1.0000 0.38280  0.47947  0.68475  Biso   1.000  C
  H77      1.0000 0.36500  0.50570  0.69850  Biso   1.000  H
  C242     1.0000 0.47080  0.42527  0.68237  Biso   1.000  C
  H78      1.0000 0.51250  0.41430  0.69510  Biso   1.000  H
  C243     1.0000 0.43380  0.40190  0.64196  Biso   1.000  C
  H79      1.0000 0.45160  0.37580  0.62800  Biso   1.000  H
  C244     1.0000 0.34470  0.45548  0.64494  Biso   1.000  C
  H80      1.0000 0.30180  0.46540  0.63360  Biso   1.000  H
  C245     1.0000 0.37200  0.41706  0.62302  Biso   1.000  C
  C246     1.0000 0.33260  0.39280  0.57889  Biso   1.000  C
  C247     1.0000 0.44850  0.09680  0.85620  Biso   1.000  C
  C248     1.0000 0.41140  0.04820  0.78280  Biso   1.000  C
  C249     1.0000 0.41190  0.07000  0.89460  Biso   1.000  C
  C250     1.0000 0.37320  0.02340  0.82000  Biso   1.000  C
  O79      1.0000 0.33550  0.01960  0.96500  Biso   1.000  O
  O80      1.0000 0.31010  0.97240  0.90410  Biso   1.000  O
  O81      1.0000 0.15812  0.24943  0.56104  Biso   1.000  O
  O82      1.0000 0.22740  0.30680  0.55850  Biso   1.000  O
  O83      1.0000 0.14250  0.53590  0.93080  Biso   1.000  O
  O84      1.0000 0.22580  0.48866  0.92880  Biso   1.000  O
  O85      1.0000 0.21972  0.08901  0.55956  Biso   1.000  O
  O86      1.0000 0.14401  0.14389  0.56402  Biso   1.000  O
  C251     1.0000 0.05694  0.34999  0.70327  Biso   1.000  C
  C252     1.0000 0.11460  0.37032  0.67975  Biso   1.000  C
  H81      1.0000 0.12640  0.39860  0.69080  Biso   1.000  H
  C253     1.0000 0.03850  0.30898  0.68377  Biso   1.000  C
  H82      1.0000 0.99950  0.29530  0.69760  Biso   1.000  H
  C254     1.0000 0.07830  0.28755  0.64303  Biso   1.000  C
  H83      1.0000 0.06560  0.25980  0.63050  Biso   1.000  H
  C255     1.0000 0.15420  0.34940  0.64066  Biso   1.000  C
  H84      1.0000 0.19320  0.36320  0.62690  Biso   1.000  H
  C256     1.0000 0.13640  0.30799  0.62163  Biso   1.000  C
  C257     1.0000 0.17690  0.28661  0.57727  Biso   1.000  C
  C258     1.0000 0.05320  0.41904  0.79681  Biso   1.000  C
  C259     1.0000 0.02710  0.46130  0.81780  Biso   1.000  C
  C260     1.0000 0.12270  0.41040  0.81120  Biso   1.000  C
  C261     1.0000 0.06210  0.48550  0.85760  Biso   1.000  C
  C262     1.0000 0.15910  0.43660  0.84880  Biso   1.000  C
  C263     1.0000 0.12810  0.46974  0.87430  Biso   1.000  C
  C264     1.0000 0.16480  0.49592  0.91430  Biso   1.000  C
  C265     1.0000 0.05480  0.03510  0.70342  Biso   1.000  C
  C266     1.0000 0.11720  0.02053  0.68475  Biso   1.000  C
  H85      1.0000 0.13500  0.99430  0.69850  Biso   1.000  H
  C267     1.0000 0.02920  0.07473  0.68237  Biso   1.000  C
  H86      1.0000 0.98750  0.08570  0.69510  Biso   1.000  H
  C268     1.0000 0.06620  0.09810  0.64196  Biso   1.000  C
  H87      1.0000 0.04840  0.12420  0.62800  Biso   1.000  H
  C269     1.0000 0.15530  0.04452  0.64494  Biso   1.000  C
  H88      1.0000 0.19820  0.03460  0.63360  Biso   1.000  H
  C270     1.0000 0.12800  0.08294  0.62302  Biso   1.000  C
  C271     1.0000 0.16740  0.10720  0.57889  Biso   1.000  C
  C272     1.0000 0.05150  0.40320  0.85620  Biso   1.000  C
  C273     1.0000 0.08860  0.45180  0.78280  Biso   1.000  C
  C274     1.0000 0.08810  0.43000  0.89460  Biso   1.000  C
  C275     1.0000 0.12680  0.47660  0.82000  Biso   1.000  C
  O87      1.0000 0.16450  0.48040  0.96500  Biso   1.000  O
  O88      1.0000 0.18990  0.52760  0.90410  Biso   1.000  O
  O89      1.0000 0.65812  0.74943  0.56104  Biso   1.000  O
  O90      1.0000 0.72740  0.80680  0.55850  Biso   1.000  O
  O91      1.0000 0.64250  0.03590  0.93080  Biso   1.000  O
  O92      1.0000 0.72580  0.98866  0.92880  Biso   1.000  O
  O93      1.0000 0.71972  0.58901  0.55956  Biso   1.000  O
  O94      1.0000 0.64401  0.64389  0.56402  Biso   1.000  O
  C276     1.0000 0.55694  0.84999  0.70327  Biso   1.000  C
  C277     1.0000 0.61460  0.87032  0.67975  Biso   1.000  C
  H89      1.0000 0.62640  0.89860  0.69080  Biso   1.000  H
  C278     1.0000 0.53850  0.80898  0.68377  Biso   1.000  C
  H90      1.0000 0.49950  0.79530  0.69760  Biso   1.000  H
  C279     1.0000 0.57830  0.78755  0.64303  Biso   1.000  C
  H91      1.0000 0.56560  0.75980  0.63050  Biso   1.000  H
  C280     1.0000 0.65420  0.84940  0.64066  Biso   1.000  C
  H92      1.0000 0.69320  0.86320  0.62690  Biso   1.000  H
  C281     1.0000 0.63640  0.80799  0.62163  Biso   1.000  C
  C282     1.0000 0.67690  0.78661  0.57727  Biso   1.000  C
  C283     1.0000 0.55320  0.91904  0.79681  Biso   1.000  C
  C284     1.0000 0.52710  0.96130  0.81780  Biso   1.000  C
  C285     1.0000 0.62270  0.91040  0.81120  Biso   1.000  C
  C286     1.0000 0.56210  0.98550  0.85760  Biso   1.000  C
  C287     1.0000 0.65910  0.93660  0.84880  Biso   1.000  C
  C288     1.0000 0.62810  0.96974  0.87430  Biso   1.000  C
  C289     1.0000 0.66480  0.99592  0.91430  Biso   1.000  C
  C290     1.0000 0.55480  0.53510  0.70342  Biso   1.000  C
  C291     1.0000 0.61720  0.52053  0.68475  Biso   1.000  C
  H93      1.0000 0.63500  0.49430  0.69850  Biso   1.000  H
  C292     1.0000 0.52920  0.57473  0.68237  Biso   1.000  C
  H94      1.0000 0.48750  0.58570  0.69510  Biso   1.000  H
  C293     1.0000 0.56620  0.59810  0.64196  Biso   1.000  C
  H95      1.0000 0.54840  0.62420  0.62800  Biso   1.000  H
  C294     1.0000 0.65530  0.54452  0.64494  Biso   1.000  C
  H96      1.0000 0.69820  0.53460  0.63360  Biso   1.000  H
  C295     1.0000 0.62800  0.58294  0.62302  Biso   1.000  C
  C296     1.0000 0.66740  0.60720  0.57889  Biso   1.000  C
  C297     1.0000 0.55150  0.90320  0.85620  Biso   1.000  C
  C298     1.0000 0.58860  0.95180  0.78280  Biso   1.000  C
  C299     1.0000 0.58810  0.93000  0.89460  Biso   1.000  C
  C300     1.0000 0.62680  0.97660  0.82000  Biso   1.000  C
  O95      1.0000 0.66450  0.98040  0.96500  Biso   1.000  O
  O96      1.0000 0.68990  0.02760  0.90410  Biso   1.000  O
  O97      1.0000 0.15812  0.75057  0.93896  Biso   1.000  O
  O98      1.0000 0.22740  0.69320  0.94150  Biso   1.000  O
  O99      1.0000 0.14250  0.46410  0.56920  Biso   1.000  O
  O100     1.0000 0.22580  0.51134  0.57120  Biso   1.000  O
  O101     1.0000 0.21972  0.91099  0.94044  Biso   1.000  O
  O102     1.0000 0.14401  0.85611  0.93598  Biso   1.000  O
  C301     1.0000 0.05694  0.65001  0.79673  Biso   1.000  C
  C302     1.0000 0.11460  0.62968  0.82025  Biso   1.000  C
  H97      1.0000 0.12640  0.60140  0.80920  Biso   1.000  H
  C303     1.0000 0.03850  0.69102  0.81623  Biso   1.000  C
  H98      1.0000 0.99950  0.70470  0.80240  Biso   1.000  H
  C304     1.0000 0.07830  0.71245  0.85697  Biso   1.000  C
  H99      1.0000 0.06560  0.74020  0.86950  Biso   1.000  H
  C305     1.0000 0.15420  0.65060  0.85934  Biso   1.000  C
  H100     1.0000 0.19320  0.63680  0.87310  Biso   1.000  H
  C306     1.0000 0.13640  0.69201  0.87837  Biso   1.000  C
  C307     1.0000 0.17690  0.71339  0.92273  Biso   1.000  C
  C308     1.0000 0.05320  0.58096  0.70319  Biso   1.000  C
  C309     1.0000 0.02710  0.53870  0.68220  Biso   1.000  C
  C310     1.0000 0.12270  0.58960  0.68880  Biso   1.000  C
  C311     1.0000 0.06210  0.51450  0.64240  Biso   1.000  C
  C312     1.0000 0.15910  0.56340  0.65120  Biso   1.000  C
  C313     1.0000 0.12810  0.53026  0.62570  Biso   1.000  C
  C314     1.0000 0.16480  0.50408  0.58570  Biso   1.000  C
  C315     1.0000 0.05480  0.96490  0.79658  Biso   1.000  C
  C316     1.0000 0.11720  0.97947  0.81525  Biso   1.000  C
  H101     1.0000 0.13500  0.00570  0.80150  Biso   1.000  H
  C317     1.0000 0.02920  0.92527  0.81763  Biso   1.000  C
  H102     1.0000 0.98750  0.91430  0.80490  Biso   1.000  H
  C318     1.0000 0.06620  0.90190  0.85804  Biso   1.000  C
  H103     1.0000 0.04840  0.87580  0.87200  Biso   1.000  H
  C319     1.0000 0.15530  0.95548  0.85506  Biso   1.000  C
  H104     1.0000 0.19820  0.96540  0.86640  Biso   1.000  H
  C320     1.0000 0.12800  0.91706  0.87698  Biso   1.000  C
  C321     1.0000 0.16740  0.89280  0.92111  Biso   1.000  C
  C322     1.0000 0.05150  0.59680  0.64380  Biso   1.000  C
  C323     1.0000 0.08860  0.54820  0.71720  Biso   1.000  C
  C324     1.0000 0.08810  0.57000  0.60540  Biso   1.000  C
  C325     1.0000 0.12680  0.52340  0.68000  Biso   1.000  C
  O103     1.0000 0.16450  0.51960  0.53500  Biso   1.000  O
  O104     1.0000 0.18990  0.47240  0.59590  Biso   1.000  O
  O105     1.0000 0.65812  0.25057  0.93896  Biso   1.000  O
  O106     1.0000 0.72740  0.19320  0.94150  Biso   1.000  O
  O107     1.0000 0.64250  0.96410  0.56920  Biso   1.000  O
  O108     1.0000 0.72580  0.01134  0.57120  Biso   1.000  O
  O109     1.0000 0.71972  0.41099  0.94044  Biso   1.000  O
  O110     1.0000 0.64401  0.35611  0.93598  Biso   1.000  O
  C326     1.0000 0.55694  0.15001  0.79673  Biso   1.000  C
  C327     1.0000 0.61460  0.12968  0.82025  Biso   1.000  C
  H105     1.0000 0.62640  0.10140  0.80920  Biso   1.000  H
  C328     1.0000 0.53850  0.19102  0.81623  Biso   1.000  C
  H106     1.0000 0.49950  0.20470  0.80240  Biso   1.000  H
  C329     1.0000 0.57830  0.21245  0.85697  Biso   1.000  C
  H107     1.0000 0.56560  0.24020  0.86950  Biso   1.000  H
  C330     1.0000 0.65420  0.15060  0.85934  Biso   1.000  C
  H108     1.0000 0.69320  0.13680  0.87310  Biso   1.000  H
  C331     1.0000 0.63640  0.19201  0.87837  Biso   1.000  C
  C332     1.0000 0.67690  0.21339  0.92273  Biso   1.000  C
  C333     1.0000 0.55320  0.08096  0.70319  Biso   1.000  C
  C334     1.0000 0.52710  0.03870  0.68220  Biso   1.000  C
  C335     1.0000 0.62270  0.08960  0.68880  Biso   1.000  C
  C336     1.0000 0.56210  0.01450  0.64240  Biso   1.000  C
  C337     1.0000 0.65910  0.06340  0.65120  Biso   1.000  C
  C338     1.0000 0.62810  0.03026  0.62570  Biso   1.000  C
  C339     1.0000 0.66480  0.00408  0.58570  Biso   1.000  C
  C340     1.0000 0.55480  0.46490  0.79658  Biso   1.000  C
  C341     1.0000 0.61720  0.47947  0.81525  Biso   1.000  C
  H109     1.0000 0.63500  0.50570  0.80150  Biso   1.000  H
  C342     1.0000 0.52920  0.42527  0.81763  Biso   1.000  C
  H110     1.0000 0.48750  0.41430  0.80490  Biso   1.000  H
  C343     1.0000 0.56620  0.40190  0.85804  Biso   1.000  C
  H111     1.0000 0.54840  0.37580  0.87200  Biso   1.000  H
  C344     1.0000 0.65530  0.45548  0.85506  Biso   1.000  C
  H112     1.0000 0.69820  0.46540  0.86640  Biso   1.000  H
  C345     1.0000 0.62800  0.41706  0.87698  Biso   1.000  C
  C346     1.0000 0.66740  0.39280  0.92111  Biso   1.000  C
  C347     1.0000 0.55150  0.09680  0.64380  Biso   1.000  C
  C348     1.0000 0.58860  0.04820  0.71720  Biso   1.000  C
  C349     1.0000 0.58810  0.07000  0.60540  Biso   1.000  C
  C350     1.0000 0.62680  0.02340  0.68000  Biso   1.000  C
  O111     1.0000 0.66450  0.01960  0.53500  Biso   1.000  O
  O112     1.0000 0.68990  0.97240  0.59590  Biso   1.000  O
  O113     1.0000 0.84188  0.24943  0.93896  Biso   1.000  O
  O114     1.0000 0.77260  0.30680  0.94150  Biso   1.000  O
  O115     1.0000 0.85750  0.53590  0.56920  Biso   1.000  O
  O116     1.0000 0.77420  0.48866  0.57120  Biso   1.000  O
  O117     1.0000 0.78028  0.08901  0.94044  Biso   1.000  O
  O118     1.0000 0.85599  0.14389  0.93598  Biso   1.000  O
  C351     1.0000 0.94306  0.34999  0.79673  Biso   1.000  C
  C352     1.0000 0.88540  0.37032  0.82025  Biso   1.000  C
  H113     1.0000 0.87360  0.39860  0.80920  Biso   1.000  H
  C353     1.0000 0.96150  0.30898  0.81623  Biso   1.000  C
  H114     1.0000 0.00050  0.29530  0.80240  Biso   1.000  H
  C354     1.0000 0.92170  0.28755  0.85697  Biso   1.000  C
  H115     1.0000 0.93440  0.25980  0.86950  Biso   1.000  H
  C355     1.0000 0.84580  0.34940  0.85934  Biso   1.000  C
  H116     1.0000 0.80680  0.36320  0.87310  Biso   1.000  H
  C356     1.0000 0.86360  0.30799  0.87837  Biso   1.000  C
  C357     1.0000 0.82310  0.28661  0.92273  Biso   1.000  C
  C358     1.0000 0.94680  0.41904  0.70319  Biso   1.000  C
  C359     1.0000 0.97290  0.46130  0.68220  Biso   1.000  C
  C360     1.0000 0.87730  0.41040  0.68880  Biso   1.000  C
  C361     1.0000 0.93790  0.48550  0.64240  Biso   1.000  C
  C362     1.0000 0.84090  0.43660  0.65120  Biso   1.000  C
  C363     1.0000 0.87190  0.46974  0.62570  Biso   1.000  C
  C364     1.0000 0.83520  0.49592  0.58570  Biso   1.000  C
  C365     1.0000 0.94520  0.03510  0.79658  Biso   1.000  C
  C366     1.0000 0.88280  0.02053  0.81525  Biso   1.000  C
  H117     1.0000 0.86500  0.99430  0.80150  Biso   1.000  H
  C367     1.0000 0.97080  0.07473  0.81763  Biso   1.000  C
  H118     1.0000 0.01250  0.08570  0.80490  Biso   1.000  H
  C368     1.0000 0.93380  0.09810  0.85804  Biso   1.000  C
  H119     1.0000 0.95160  0.12420  0.87200  Biso   1.000  H
  C369     1.0000 0.84470  0.04452  0.85506  Biso   1.000  C
  H120     1.0000 0.80180  0.03460  0.86640  Biso   1.000  H
  C370     1.0000 0.87200  0.08294  0.87698  Biso   1.000  C
  C371     1.0000 0.83260  0.10720  0.92111  Biso   1.000  C
  C372     1.0000 0.94850  0.40320  0.64380  Biso   1.000  C
  C373     1.0000 0.91140  0.45180  0.71720  Biso   1.000  C
  C374     1.0000 0.91190  0.43000  0.60540  Biso   1.000  C
  C375     1.0000 0.87320  0.47660  0.68000  Biso   1.000  C
  O119     1.0000 0.83550  0.48040  0.53500  Biso   1.000  O
  O120     1.0000 0.81010  0.52760  0.59590  Biso   1.000  O
  O121     1.0000 0.34188  0.74943  0.93896  Biso   1.000  O
  O122     1.0000 0.27260  0.80680  0.94150  Biso   1.000  O
  O123     1.0000 0.35750  0.03590  0.56920  Biso   1.000  O
  O124     1.0000 0.27420  0.98866  0.57120  Biso   1.000  O
  O125     1.0000 0.28028  0.58901  0.94044  Biso   1.000  O
  O126     1.0000 0.35599  0.64389  0.93598  Biso   1.000  O
  C376     1.0000 0.44306  0.84999  0.79673  Biso   1.000  C
  C377     1.0000 0.38540  0.87032  0.82025  Biso   1.000  C
  H121     1.0000 0.37360  0.89860  0.80920  Biso   1.000  H
  C378     1.0000 0.46150  0.80898  0.81623  Biso   1.000  C
  H122     1.0000 0.50050  0.79530  0.80240  Biso   1.000  H
  C379     1.0000 0.42170  0.78755  0.85697  Biso   1.000  C
  H123     1.0000 0.43440  0.75980  0.86950  Biso   1.000  H
  C380     1.0000 0.34580  0.84940  0.85934  Biso   1.000  C
  H124     1.0000 0.30680  0.86320  0.87310  Biso   1.000  H
  C381     1.0000 0.36360  0.80799  0.87837  Biso   1.000  C
  C382     1.0000 0.32310  0.78661  0.92273  Biso   1.000  C
  C383     1.0000 0.44680  0.91904  0.70319  Biso   1.000  C
  C384     1.0000 0.47290  0.96130  0.68220  Biso   1.000  C
  C385     1.0000 0.37730  0.91040  0.68880  Biso   1.000  C
  C386     1.0000 0.43790  0.98550  0.64240  Biso   1.000  C
  C387     1.0000 0.34090  0.93660  0.65120  Biso   1.000  C
  C388     1.0000 0.37190  0.96974  0.62570  Biso   1.000  C
  C389     1.0000 0.33520  0.99592  0.58570  Biso   1.000  C
  C390     1.0000 0.44520  0.53510  0.79658  Biso   1.000  C
  C391     1.0000 0.38280  0.52053  0.81525  Biso   1.000  C
  H125     1.0000 0.36500  0.49430  0.80150  Biso   1.000  H
  C392     1.0000 0.47080  0.57473  0.81763  Biso   1.000  C
  H126     1.0000 0.51250  0.58570  0.80490  Biso   1.000  H
  C393     1.0000 0.43380  0.59810  0.85804  Biso   1.000  C
  H127     1.0000 0.45160  0.62420  0.87200  Biso   1.000  H
  C394     1.0000 0.34470  0.54452  0.85506  Biso   1.000  C
  H128     1.0000 0.30180  0.53460  0.86640  Biso   1.000  H
  C395     1.0000 0.37200  0.58294  0.87698  Biso   1.000  C
  C396     1.0000 0.33260  0.60720  0.92111  Biso   1.000  C
  C397     1.0000 0.44850  0.90320  0.64380  Biso   1.000  C
  C398     1.0000 0.41140  0.95180  0.71720  Biso   1.000  C
  C399     1.0000 0.41190  0.93000  0.60540  Biso   1.000  C
  C400     1.0000 0.37320  0.97660  0.68000  Biso   1.000  C
  O127     1.0000 0.33550  0.98040  0.53500  Biso   1.000  O
  O128     1.0000 0.31010  0.02760  0.59590  Biso   1.000  O
  Er1      1.0000 0.18105  0.19448  0.50000  Biso   1.000  Er
  Er2      1.0000 0.27443  0.04400  0.50000  Biso   1.000  Er
  Er3      1.0000 0.68105  0.69448  0.50000  Biso   1.000  Er
  Er4      1.0000 0.77443  0.54400  0.50000  Biso   1.000  Er
  Er5      1.0000 0.81895  0.80552  0.50000  Biso   1.000  Er
  Er6      1.0000 0.72557  0.95600  0.50000  Biso   1.000  Er
  Er7      1.0000 0.31895  0.30552  0.50000  Biso   1.000  Er
  Er8      1.0000 0.22557  0.45600  0.50000  Biso   1.000  Er
  Er9      1.0000 0.81895  0.19448  0.00000  Biso   1.000  Er
  Er10     1.0000 0.72557  0.04400  0.00000  Biso   1.000  Er
  Er11     1.0000 0.31895  0.69448  0.00000  Biso   1.000  Er
  Er12     1.0000 0.22557  0.54400  0.00000  Biso   1.000  Er
  Er13     1.0000 0.18105  0.80552  0.00000  Biso   1.000  Er
  Er14     1.0000 0.27443  0.95600  0.00000  Biso   1.000  Er
  Er15     1.0000 0.68105  0.30552  0.00000  Biso   1.000  Er
  Er16     1.0000 0.77443  0.45600  0.00000  Biso   1.000  Er
  Si1      1.0000 0.00000  0.38354  0.25000  Biso   1.000  Si
  Si2      1.0000 0.50000  0.88354  0.25000  Biso   1.000  Si
  Si3      1.0000 0.00000  0.61646  0.25000  Biso   1.000  Si
  Si4      1.0000 0.50000  0.11646  0.25000  Biso   1.000  Si
  Si5      1.0000 0.00000  0.61646  0.75000  Biso   1.000  Si
  Si6      1.0000 0.50000  0.11646  0.75000  Biso   1.000  Si
  Si7      1.0000 0.00000  0.38354  0.75000  Biso   1.000  Si
  Si8      1.0000 0.50000  0.88354  0.75000  Biso   1.000  Si
  Si9      1.0000 0.00000  0.00000  0.25000  Biso   1.000  Si
  Si10     1.0000 0.50000  0.50000  0.25000  Biso   1.000  Si
  Si11     1.0000 0.00000  0.00000  0.75000  Biso   1.000  Si
  Si12     1.0000 0.50000  0.50000  0.75000  Biso   1.000  Si
