data_image0
_cell_length_a       24.1977
_cell_length_b       13.9528
_cell_length_c       25.1006
_cell_angle_alpha    90
_cell_angle_beta     96.677
_cell_angle_gamma    90

_symmetry_space_group_name_H-M    "P 1"
_symmetry_int_tables_number       1

loop_
  _symmetry_equiv_pos_as_xyz
  'x, y, z'

loop_
  _atom_site_label
  _atom_site_occupancy
  _atom_site_fract_x
  _atom_site_fract_y
  _atom_site_fract_z
  _atom_site_thermal_displace_type
  _atom_site_B_iso_or_equiv
  _atom_site_type_symbol
  Cd1      1.0000 0.22996  0.23640  0.92103  Biso   1.000  Cd
  O1       1.0000 0.22820  0.23220  0.82820  Biso   1.000  O
  O2       1.0000 0.82290  0.26900  0.42750  Biso   1.000  O
  O3       1.0000 0.99400  0.26410  0.33900  Biso   1.000  O
  N1       1.0000 0.22860  0.40160  0.92510  Biso   1.000  N
  O4       1.0000 0.11910  0.24200  0.56180  Biso   1.000  O
  O5       1.0000 0.14530  0.23550  0.85500  Biso   1.000  O
  O6       1.0000 0.82730  0.23920  0.51370  Biso   1.000  O
  N2       1.0000 0.22570  0.07170  0.92850  Biso   1.000  N
  C1       1.0000 0.15120  0.23750  0.76050  Biso   1.000  C
  C2       1.0000 0.09460  0.24150  0.74680  Biso   1.000  C
  H1       1.0000 0.07120  0.24490  0.77360  Biso   1.000  H
  C3       1.0000 0.07200  0.24030  0.69340  Biso   1.000  C
  H2       1.0000 0.03360  0.23920  0.68470  Biso   1.000  H
  C4       1.0000 0.10640  0.24070  0.65300  Biso   1.000  C
  C5       1.0000 0.16270  0.23880  0.66770  Biso   1.000  C
  H3       1.0000 0.18650  0.23870  0.64120  Biso   1.000  H
  C6       1.0000 0.18510  0.23700  0.72080  Biso   1.000  C
  H4       1.0000 0.22350  0.23550  0.72950  Biso   1.000  H
  C7       1.0000 0.00150  0.24950  0.52820  Biso   1.000  C
  C8       1.0000 0.94380  0.24970  0.52500  Biso   1.000  C
  H5       1.0000 0.92660  0.24680  0.55620  Biso   1.000  H
  C9       1.0000 0.91180  0.25430  0.47580  Biso   1.000  C
  C10      1.0000 0.93760  0.25940  0.42920  Biso   1.000  C
  H6       1.0000 0.91610  0.26270  0.39600  Biso   1.000  H
  C11      1.0000 0.99510  0.25940  0.43210  Biso   1.000  C
  C12      1.0000 0.02720  0.25350  0.48160  Biso   1.000  C
  H7       1.0000 0.06580  0.25230  0.48350  Biso   1.000  H
  C13      1.0000 0.17610  0.23500  0.81810  Biso   1.000  C
  C14      1.0000 0.84930  0.25410  0.47250  Biso   1.000  C
  C15      1.0000 0.02330  0.26430  0.38230  Biso   1.000  C
  C16      1.0000 0.08590  0.24460  0.59430  Biso   1.000  C
  C17      1.0000 0.26940  0.01850  0.92800  Biso   1.000  C
  H8       1.0000 0.30390  0.04740  0.92710  Biso   1.000  H
  C18      1.0000 0.26600  0.91690  0.92890  Biso   1.000  C
  H9       1.0000 0.29820  0.88080  0.92840  Biso   1.000  H
  C19      1.0000 0.21700  0.87200  0.93050  Biso   1.000  C
  C20      1.0000 0.17150  0.92860  0.93270  Biso   1.000  C
  H10      1.0000 0.13680  0.90150  0.93540  Biso   1.000  H
  C21      1.0000 0.17750  0.02530  0.93100  Biso   1.000  C
  H11      1.0000 0.14560  0.06230  0.93170  Biso   1.000  H
  C22      1.0000 0.20210  0.77000  0.92790  Biso   1.000  C
  H12      1.0000 0.16490  0.75170  0.92280  Biso   1.000  H
  C23      1.0000 0.24320  0.70170  0.93310  Biso   1.000  C
  H13      1.0000 0.28010  0.72130  0.93870  Biso   1.000  H
  C24      1.0000 0.18160  0.44920  0.92830  Biso   1.000  C
  H14      1.0000 0.14840  0.41600  0.92910  Biso   1.000  H
  C25      1.0000 0.18210  0.55070  0.93030  Biso   1.000  C
  H15      1.0000 0.14900  0.58370  0.93190  Biso   1.000  H
  C26      1.0000 0.23100  0.60140  0.93000  Biso   1.000  C
  C27      1.0000 0.27900  0.54840  0.92570  Biso   1.000  C
  H16      1.0000 0.31280  0.57930  0.92390  Biso   1.000  H
  C28      1.0000 0.27600  0.45040  0.92420  Biso   1.000  C
  H17      1.0000 0.30870  0.41600  0.92250  Biso   1.000  H
  N3       1.0000 0.03090  0.24680  0.58040  Biso   1.000  N
  H18      1.0000 0.01080  0.24660  0.60650  Biso   1.000  H
  C29      1.0000 0.22710  0.00610  0.26680  Biso   1.000  C
  H19      1.0000 0.22820  0.95740  0.29220  Biso   1.000  H
  C30      1.0000 0.27180  0.02060  0.24270  Biso   1.000  C
  H20      1.0000 0.26990  0.06030  0.21280  Biso   1.000  H
  C31      1.0000 0.42270  0.94270  0.29970  Biso   1.000  C
  H21      1.0000 0.45120  0.94680  0.32780  Biso   1.000  H
  C32      1.0000 0.37020  0.97850  0.30580  Biso   1.000  C
  H22      1.0000 0.36350  0.00650  0.33810  Biso   1.000  H
  C33      1.0000 0.32760  0.97230  0.26370  Biso   1.000  C
  C34      1.0000 0.33750  0.93040  0.21550  Biso   1.000  C
  H23      1.0000 0.30900  0.92630  0.18740  Biso   1.000  H
  C35      1.0000 0.39000  0.89460  0.20940  Biso   1.000  C
  H24      1.0000 0.39660  0.86660  0.17710  Biso   1.000  H
  N4       1.0000 0.43260  0.90080  0.25150  Biso   1.000  N
  N5       1.0000 0.07770  0.17120  0.25310  Biso   1.000  N
  C36      1.0000 0.11970  0.19960  0.22310  Biso   1.000  C
  H25      1.0000 0.11540  0.25460  0.20220  Biso   1.000  H
  C37      1.0000 0.16810  0.14560  0.22450  Biso   1.000  C
  H26      1.0000 0.19620  0.16460  0.20440  Biso   1.000  H
  C38      1.0000 0.17460  0.06330  0.25570  Biso   1.000  C
  C39      1.0000 0.13260  0.03490  0.28570  Biso   1.000  C
  H27      1.0000 0.13690  0.97990  0.30670  Biso   1.000  H
  C40      1.0000 0.08410  0.08890  0.28440  Biso   1.000  C
  H28      1.0000 0.05610  0.06990  0.30440  Biso   1.000  H
  O7       1.0000 0.07080  0.30400  0.38740  Biso   1.000  O
  C41      1.0000 0.24250  0.76090  0.93430  Biso   1.000  C
  H29      1.0000 0.27960  0.74230  0.94060  Biso   1.000  H
  C42      1.0000 0.20210  0.71040  0.92690  Biso   1.000  C
  H30      1.0000 0.16470  0.72740  0.92110  Biso   1.000  H
  C43      1.0000 0.22620  0.00710  0.23790  Biso   1.000  C
  H31      1.0000 0.22890  0.98140  0.20410  Biso   1.000  H
  C44      1.0000 0.27280  0.00000  0.27170  Biso   1.000  C
  H32      1.0000 0.27540  0.01300  0.30820  Biso   1.000  H
  C45      1.0000 0.41360  0.94680  0.21600  Biso   1.000  C
  H33      1.0000 0.44180  0.96720  0.19650  Biso   1.000  H
  C46      1.0000 0.36380  0.99740  0.21300  Biso   1.000  C
  H34      1.0000 0.35880  0.05180  0.19160  Biso   1.000  H
  C47      1.0000 0.32160  0.96680  0.24210  Biso   1.000  C
  C48      1.0000 0.32910  0.88560  0.27420  Biso   1.000  C
  H35      1.0000 0.30090  0.86510  0.29360  Biso   1.000  H
  C49      1.0000 0.37880  0.83490  0.27710  Biso   1.000  C
  H36      1.0000 0.38390  0.78050  0.29860  Biso   1.000  H
  N6       1.0000 0.42110  0.86550  0.24810  Biso   1.000  N
  N7       1.0000 0.06790  0.13580  0.25080  Biso   1.000  N
  C50      1.0000 0.07740  0.08610  0.20470  Biso   1.000  C
  H37      1.0000 0.04950  0.08190  0.17600  Biso   1.000  H
  C51      1.0000 0.12860  0.04270  0.20150  Biso   1.000  C
  H38      1.0000 0.13500  0.00950  0.17070  Biso   1.000  H
  C52      1.0000 0.17040  0.04900  0.24440  Biso   1.000  C
  C53      1.0000 0.16090  0.09870  0.29040  Biso   1.000  C
  H39      1.0000 0.18880  0.10280  0.31910  Biso   1.000  H
  C54      1.0000 0.10960  0.14200  0.29360  Biso   1.000  C
  H40      1.0000 0.10330  0.17530  0.32450  Biso   1.000  H
  O8       1.0000 0.07170  0.23200  0.38510  Biso   1.000  O
  Cd2      1.0000 0.72996  0.73640  0.92103  Biso   1.000  Cd
  O9       1.0000 0.72820  0.73220  0.82820  Biso   1.000  O
  O10      1.0000 0.32290  0.76900  0.42750  Biso   1.000  O
  O11      1.0000 0.49400  0.76410  0.33900  Biso   1.000  O
  N8       1.0000 0.72860  0.90160  0.92510  Biso   1.000  N
  O12      1.0000 0.61910  0.74200  0.56180  Biso   1.000  O
  O13      1.0000 0.64530  0.73550  0.85500  Biso   1.000  O
  O14      1.0000 0.32730  0.73920  0.51370  Biso   1.000  O
  N9       1.0000 0.72570  0.57170  0.92850  Biso   1.000  N
  C55      1.0000 0.65120  0.73750  0.76050  Biso   1.000  C
  C56      1.0000 0.59460  0.74150  0.74680  Biso   1.000  C
  H41      1.0000 0.57120  0.74490  0.77360  Biso   1.000  H
  C57      1.0000 0.57200  0.74030  0.69340  Biso   1.000  C
  H42      1.0000 0.53360  0.73920  0.68470  Biso   1.000  H
  C58      1.0000 0.60640  0.74070  0.65300  Biso   1.000  C
  C59      1.0000 0.66270  0.73880  0.66770  Biso   1.000  C
  H43      1.0000 0.68650  0.73870  0.64120  Biso   1.000  H
  C60      1.0000 0.68510  0.73700  0.72080  Biso   1.000  C
  H44      1.0000 0.72350  0.73550  0.72950  Biso   1.000  H
  C61      1.0000 0.50150  0.74950  0.52820  Biso   1.000  C
  C62      1.0000 0.44380  0.74970  0.52500  Biso   1.000  C
  H45      1.0000 0.42660  0.74680  0.55620  Biso   1.000  H
  C63      1.0000 0.41180  0.75430  0.47580  Biso   1.000  C
  C64      1.0000 0.43760  0.75940  0.42920  Biso   1.000  C
  H46      1.0000 0.41610  0.76270  0.39600  Biso   1.000  H
  C65      1.0000 0.49510  0.75940  0.43210  Biso   1.000  C
  C66      1.0000 0.52720  0.75350  0.48160  Biso   1.000  C
  H47      1.0000 0.56580  0.75230  0.48350  Biso   1.000  H
  C67      1.0000 0.67610  0.73500  0.81810  Biso   1.000  C
  C68      1.0000 0.34930  0.75410  0.47250  Biso   1.000  C
  C69      1.0000 0.52330  0.76430  0.38230  Biso   1.000  C
  C70      1.0000 0.58590  0.74460  0.59430  Biso   1.000  C
  C71      1.0000 0.76940  0.51850  0.92800  Biso   1.000  C
  H48      1.0000 0.80390  0.54740  0.92710  Biso   1.000  H
  C72      1.0000 0.76600  0.41690  0.92890  Biso   1.000  C
  H49      1.0000 0.79820  0.38080  0.92840  Biso   1.000  H
  C73      1.0000 0.71700  0.37200  0.93050  Biso   1.000  C
  C74      1.0000 0.67150  0.42860  0.93270  Biso   1.000  C
  H50      1.0000 0.63680  0.40150  0.93540  Biso   1.000  H
  C75      1.0000 0.67750  0.52530  0.93100  Biso   1.000  C
  H51      1.0000 0.64560  0.56230  0.93170  Biso   1.000  H
  C76      1.0000 0.70210  0.27000  0.92790  Biso   1.000  C
  H52      1.0000 0.66490  0.25170  0.92280  Biso   1.000  H
  C77      1.0000 0.74320  0.20170  0.93310  Biso   1.000  C
  H53      1.0000 0.78010  0.22130  0.93870  Biso   1.000  H
  C78      1.0000 0.68160  0.94920  0.92830  Biso   1.000  C
  H54      1.0000 0.64840  0.91600  0.92910  Biso   1.000  H
  C79      1.0000 0.68210  0.05070  0.93030  Biso   1.000  C
  H55      1.0000 0.64900  0.08370  0.93190  Biso   1.000  H
  C80      1.0000 0.73100  0.10140  0.93000  Biso   1.000  C
  C81      1.0000 0.77900  0.04840  0.92570  Biso   1.000  C
  H56      1.0000 0.81280  0.07930  0.92390  Biso   1.000  H
  C82      1.0000 0.77600  0.95040  0.92420  Biso   1.000  C
  H57      1.0000 0.80870  0.91600  0.92250  Biso   1.000  H
  N10      1.0000 0.53090  0.74680  0.58040  Biso   1.000  N
  H58      1.0000 0.51080  0.74660  0.60650  Biso   1.000  H
  C83      1.0000 0.72710  0.50610  0.26680  Biso   1.000  C
  H59      1.0000 0.72820  0.45740  0.29220  Biso   1.000  H
  C84      1.0000 0.77180  0.52060  0.24270  Biso   1.000  C
  H60      1.0000 0.76990  0.56030  0.21280  Biso   1.000  H
  C85      1.0000 0.92270  0.44270  0.29970  Biso   1.000  C
  H61      1.0000 0.95120  0.44680  0.32780  Biso   1.000  H
  C86      1.0000 0.87020  0.47850  0.30580  Biso   1.000  C
  H62      1.0000 0.86350  0.50650  0.33810  Biso   1.000  H
  C87      1.0000 0.82760  0.47230  0.26370  Biso   1.000  C
  C88      1.0000 0.83750  0.43040  0.21550  Biso   1.000  C
  H63      1.0000 0.80900  0.42630  0.18740  Biso   1.000  H
  C89      1.0000 0.89000  0.39460  0.20940  Biso   1.000  C
  H64      1.0000 0.89660  0.36660  0.17710  Biso   1.000  H
  N11      1.0000 0.93260  0.40080  0.25150  Biso   1.000  N
  N12      1.0000 0.57770  0.67120  0.25310  Biso   1.000  N
  C90      1.0000 0.61970  0.69960  0.22310  Biso   1.000  C
  H65      1.0000 0.61540  0.75460  0.20220  Biso   1.000  H
  C91      1.0000 0.66810  0.64560  0.22450  Biso   1.000  C
  H66      1.0000 0.69620  0.66460  0.20440  Biso   1.000  H
  C92      1.0000 0.67460  0.56330  0.25570  Biso   1.000  C
  C93      1.0000 0.63260  0.53490  0.28570  Biso   1.000  C
  H67      1.0000 0.63690  0.47990  0.30670  Biso   1.000  H
  C94      1.0000 0.58410  0.58890  0.28440  Biso   1.000  C
  H68      1.0000 0.55610  0.56990  0.30440  Biso   1.000  H
  O15      1.0000 0.57080  0.80400  0.38740  Biso   1.000  O
  C95      1.0000 0.74250  0.26090  0.93430  Biso   1.000  C
  H69      1.0000 0.77960  0.24230  0.94060  Biso   1.000  H
  C96      1.0000 0.70210  0.21040  0.92690  Biso   1.000  C
  H70      1.0000 0.66470  0.22740  0.92110  Biso   1.000  H
  C97      1.0000 0.72620  0.50710  0.23790  Biso   1.000  C
  H71      1.0000 0.72890  0.48140  0.20410  Biso   1.000  H
  C98      1.0000 0.77280  0.50000  0.27170  Biso   1.000  C
  H72      1.0000 0.77540  0.51300  0.30820  Biso   1.000  H
  C99      1.0000 0.91360  0.44680  0.21600  Biso   1.000  C
  H73      1.0000 0.94180  0.46720  0.19650  Biso   1.000  H
  C100     1.0000 0.86380  0.49740  0.21300  Biso   1.000  C
  H74      1.0000 0.85880  0.55180  0.19160  Biso   1.000  H
  C101     1.0000 0.82160  0.46680  0.24210  Biso   1.000  C
  C102     1.0000 0.82910  0.38560  0.27420  Biso   1.000  C
  H75      1.0000 0.80090  0.36510  0.29360  Biso   1.000  H
  C103     1.0000 0.87880  0.33490  0.27710  Biso   1.000  C
  H76      1.0000 0.88390  0.28050  0.29860  Biso   1.000  H
  N13      1.0000 0.92110  0.36550  0.24810  Biso   1.000  N
  N14      1.0000 0.56790  0.63580  0.25080  Biso   1.000  N
  C104     1.0000 0.57740  0.58610  0.20470  Biso   1.000  C
  H77      1.0000 0.54950  0.58190  0.17600  Biso   1.000  H
  C105     1.0000 0.62860  0.54270  0.20150  Biso   1.000  C
  H78      1.0000 0.63500  0.50950  0.17070  Biso   1.000  H
  C106     1.0000 0.67040  0.54900  0.24440  Biso   1.000  C
  C107     1.0000 0.66090  0.59870  0.29040  Biso   1.000  C
  H79      1.0000 0.68880  0.60280  0.31910  Biso   1.000  H
  C108     1.0000 0.60960  0.64200  0.29360  Biso   1.000  C
  H80      1.0000 0.60330  0.67530  0.32450  Biso   1.000  H
  O16      1.0000 0.57170  0.73200  0.38510  Biso   1.000  O
  Cd3      1.0000 0.77004  0.23640  0.57897  Biso   1.000  Cd
  O17      1.0000 0.77180  0.23220  0.67180  Biso   1.000  O
  O18      1.0000 0.17710  0.26900  0.07250  Biso   1.000  O
  O19      1.0000 0.00600  0.26410  0.16100  Biso   1.000  O
  N15      1.0000 0.77140  0.40160  0.57490  Biso   1.000  N
  O20      1.0000 0.88090  0.24200  0.93820  Biso   1.000  O
  O21      1.0000 0.85470  0.23550  0.64500  Biso   1.000  O
  O22      1.0000 0.17270  0.23920  0.98630  Biso   1.000  O
  N16      1.0000 0.77430  0.07170  0.57150  Biso   1.000  N
  C109     1.0000 0.84880  0.23750  0.73950  Biso   1.000  C
  C110     1.0000 0.90540  0.24150  0.75320  Biso   1.000  C
  H81      1.0000 0.92880  0.24490  0.72640  Biso   1.000  H
  C111     1.0000 0.92800  0.24030  0.80660  Biso   1.000  C
  H82      1.0000 0.96640  0.23920  0.81530  Biso   1.000  H
  C112     1.0000 0.89360  0.24070  0.84700  Biso   1.000  C
  C113     1.0000 0.83730  0.23880  0.83230  Biso   1.000  C
  H83      1.0000 0.81350  0.23870  0.85880  Biso   1.000  H
  C114     1.0000 0.81490  0.23700  0.77920  Biso   1.000  C
  H84      1.0000 0.77650  0.23550  0.77050  Biso   1.000  H
  C115     1.0000 0.99850  0.24950  0.97180  Biso   1.000  C
  C116     1.0000 0.05620  0.24970  0.97500  Biso   1.000  C
  H85      1.0000 0.07340  0.24680  0.94380  Biso   1.000  H
  C117     1.0000 0.08820  0.25430  0.02420  Biso   1.000  C
  C118     1.0000 0.06240  0.25940  0.07080  Biso   1.000  C
  H86      1.0000 0.08390  0.26270  0.10400  Biso   1.000  H
  C119     1.0000 0.00490  0.25940  0.06790  Biso   1.000  C
  C120     1.0000 0.97280  0.25350  0.01840  Biso   1.000  C
  H87      1.0000 0.93420  0.25230  0.01650  Biso   1.000  H
  C121     1.0000 0.82390  0.23500  0.68190  Biso   1.000  C
  C122     1.0000 0.15070  0.25410  0.02750  Biso   1.000  C
  C123     1.0000 0.97670  0.26430  0.11770  Biso   1.000  C
  C124     1.0000 0.91410  0.24460  0.90570  Biso   1.000  C
  C125     1.0000 0.73060  0.01850  0.57200  Biso   1.000  C
  H88      1.0000 0.69610  0.04740  0.57290  Biso   1.000  H
  C126     1.0000 0.73400  0.91690  0.57110  Biso   1.000  C
  H89      1.0000 0.70180  0.88080  0.57160  Biso   1.000  H
  C127     1.0000 0.78300  0.87200  0.56950  Biso   1.000  C
  C128     1.0000 0.82850  0.92860  0.56730  Biso   1.000  C
  H90      1.0000 0.86320  0.90150  0.56460  Biso   1.000  H
  C129     1.0000 0.82250  0.02530  0.56900  Biso   1.000  C
  H91      1.0000 0.85440  0.06230  0.56830  Biso   1.000  H
  C130     1.0000 0.79790  0.77000  0.57210  Biso   1.000  C
  H92      1.0000 0.83510  0.75170  0.57720  Biso   1.000  H
  C131     1.0000 0.75680  0.70170  0.56690  Biso   1.000  C
  H93      1.0000 0.71990  0.72130  0.56130  Biso   1.000  H
  C132     1.0000 0.81840  0.44920  0.57170  Biso   1.000  C
  H94      1.0000 0.85160  0.41600  0.57090  Biso   1.000  H
  C133     1.0000 0.81790  0.55070  0.56970  Biso   1.000  C
  H95      1.0000 0.85100  0.58370  0.56810  Biso   1.000  H
  C134     1.0000 0.76900  0.60140  0.57000  Biso   1.000  C
  C135     1.0000 0.72100  0.54840  0.57430  Biso   1.000  C
  H96      1.0000 0.68720  0.57930  0.57610  Biso   1.000  H
  C136     1.0000 0.72400  0.45040  0.57580  Biso   1.000  C
  H97      1.0000 0.69130  0.41600  0.57750  Biso   1.000  H
  N17      1.0000 0.96910  0.24680  0.91960  Biso   1.000  N
  H98      1.0000 0.98920  0.24660  0.89350  Biso   1.000  H
  C137     1.0000 0.77290  0.00610  0.23320  Biso   1.000  C
  H99      1.0000 0.77180  0.95740  0.20780  Biso   1.000  H
  C138     1.0000 0.72820  0.02060  0.25730  Biso   1.000  C
  H100     1.0000 0.73010  0.06030  0.28720  Biso   1.000  H
  C139     1.0000 0.57730  0.94270  0.20030  Biso   1.000  C
  H101     1.0000 0.54880  0.94680  0.17220  Biso   1.000  H
  C140     1.0000 0.62980  0.97850  0.19420  Biso   1.000  C
  H102     1.0000 0.63650  0.00650  0.16190  Biso   1.000  H
  C141     1.0000 0.67240  0.97230  0.23630  Biso   1.000  C
  C142     1.0000 0.66250  0.93040  0.28450  Biso   1.000  C
  H103     1.0000 0.69100  0.92630  0.31260  Biso   1.000  H
  C143     1.0000 0.61000  0.89460  0.29060  Biso   1.000  C
  H104     1.0000 0.60340  0.86660  0.32290  Biso   1.000  H
  N18      1.0000 0.56740  0.90080  0.24850  Biso   1.000  N
  N19      1.0000 0.92230  0.17120  0.24690  Biso   1.000  N
  C144     1.0000 0.88030  0.19960  0.27690  Biso   1.000  C
  H105     1.0000 0.88460  0.25460  0.29780  Biso   1.000  H
  C145     1.0000 0.83190  0.14560  0.27550  Biso   1.000  C
  H106     1.0000 0.80380  0.16460  0.29560  Biso   1.000  H
  C146     1.0000 0.82540  0.06330  0.24430  Biso   1.000  C
  C147     1.0000 0.86740  0.03490  0.21430  Biso   1.000  C
  H107     1.0000 0.86310  0.97990  0.19330  Biso   1.000  H
  C148     1.0000 0.91590  0.08890  0.21560  Biso   1.000  C
  H108     1.0000 0.94390  0.06990  0.19560  Biso   1.000  H
  O23      1.0000 0.92920  0.30400  0.11260  Biso   1.000  O
  C149     1.0000 0.75750  0.76090  0.56570  Biso   1.000  C
  H109     1.0000 0.72040  0.74230  0.55940  Biso   1.000  H
  C150     1.0000 0.79790  0.71040  0.57310  Biso   1.000  C
  H110     1.0000 0.83530  0.72740  0.57890  Biso   1.000  H
  C151     1.0000 0.77380  0.00710  0.26210  Biso   1.000  C
  H111     1.0000 0.77110  0.98140  0.29590  Biso   1.000  H
  C152     1.0000 0.72720  0.00000  0.22830  Biso   1.000  C
  H112     1.0000 0.72460  0.01300  0.19180  Biso   1.000  H
  C153     1.0000 0.58640  0.94680  0.28400  Biso   1.000  C
  H113     1.0000 0.55820  0.96720  0.30350  Biso   1.000  H
  C154     1.0000 0.63620  0.99740  0.28700  Biso   1.000  C
  H114     1.0000 0.64120  0.05180  0.30840  Biso   1.000  H
  C155     1.0000 0.67840  0.96680  0.25790  Biso   1.000  C
  C156     1.0000 0.67090  0.88560  0.22580  Biso   1.000  C
  H115     1.0000 0.69910  0.86510  0.20640  Biso   1.000  H
  C157     1.0000 0.62120  0.83490  0.22290  Biso   1.000  C
  H116     1.0000 0.61610  0.78050  0.20140  Biso   1.000  H
  N20      1.0000 0.57890  0.86550  0.25190  Biso   1.000  N
  N21      1.0000 0.93210  0.13580  0.24920  Biso   1.000  N
  C158     1.0000 0.92260  0.08610  0.29530  Biso   1.000  C
  H117     1.0000 0.95050  0.08190  0.32400  Biso   1.000  H
  C159     1.0000 0.87140  0.04270  0.29850  Biso   1.000  C
  H118     1.0000 0.86500  0.00950  0.32930  Biso   1.000  H
  C160     1.0000 0.82960  0.04900  0.25560  Biso   1.000  C
  C161     1.0000 0.83910  0.09870  0.20960  Biso   1.000  C
  H119     1.0000 0.81120  0.10280  0.18090  Biso   1.000  H
  C162     1.0000 0.89040  0.14200  0.20640  Biso   1.000  C
  H120     1.0000 0.89670  0.17530  0.17550  Biso   1.000  H
  O24      1.0000 0.92830  0.23200  0.11490  Biso   1.000  O
  Cd4      1.0000 0.27004  0.73640  0.57897  Biso   1.000  Cd
  O25      1.0000 0.27180  0.73220  0.67180  Biso   1.000  O
  O26      1.0000 0.67710  0.76900  0.07250  Biso   1.000  O
  O27      1.0000 0.50600  0.76410  0.16100  Biso   1.000  O
  N22      1.0000 0.27140  0.90160  0.57490  Biso   1.000  N
  O28      1.0000 0.38090  0.74200  0.93820  Biso   1.000  O
  O29      1.0000 0.35470  0.73550  0.64500  Biso   1.000  O
  O30      1.0000 0.67270  0.73920  0.98630  Biso   1.000  O
  N23      1.0000 0.27430  0.57170  0.57150  Biso   1.000  N
  C163     1.0000 0.34880  0.73750  0.73950  Biso   1.000  C
  C164     1.0000 0.40540  0.74150  0.75320  Biso   1.000  C
  H121     1.0000 0.42880  0.74490  0.72640  Biso   1.000  H
  C165     1.0000 0.42800  0.74030  0.80660  Biso   1.000  C
  H122     1.0000 0.46640  0.73920  0.81530  Biso   1.000  H
  C166     1.0000 0.39360  0.74070  0.84700  Biso   1.000  C
  C167     1.0000 0.33730  0.73880  0.83230  Biso   1.000  C
  H123     1.0000 0.31350  0.73870  0.85880  Biso   1.000  H
  C168     1.0000 0.31490  0.73700  0.77920  Biso   1.000  C
  H124     1.0000 0.27650  0.73550  0.77050  Biso   1.000  H
  C169     1.0000 0.49850  0.74950  0.97180  Biso   1.000  C
  C170     1.0000 0.55620  0.74970  0.97500  Biso   1.000  C
  H125     1.0000 0.57340  0.74680  0.94380  Biso   1.000  H
  C171     1.0000 0.58820  0.75430  0.02420  Biso   1.000  C
  C172     1.0000 0.56240  0.75940  0.07080  Biso   1.000  C
  H126     1.0000 0.58390  0.76270  0.10400  Biso   1.000  H
  C173     1.0000 0.50490  0.75940  0.06790  Biso   1.000  C
  C174     1.0000 0.47280  0.75350  0.01840  Biso   1.000  C
  H127     1.0000 0.43420  0.75230  0.01650  Biso   1.000  H
  C175     1.0000 0.32390  0.73500  0.68190  Biso   1.000  C
  C176     1.0000 0.65070  0.75410  0.02750  Biso   1.000  C
  C177     1.0000 0.47670  0.76430  0.11770  Biso   1.000  C
  C178     1.0000 0.41410  0.74460  0.90570  Biso   1.000  C
  C179     1.0000 0.23060  0.51850  0.57200  Biso   1.000  C
  H128     1.0000 0.19610  0.54740  0.57290  Biso   1.000  H
  C180     1.0000 0.23400  0.41690  0.57110  Biso   1.000  C
  H129     1.0000 0.20180  0.38080  0.57160  Biso   1.000  H
  C181     1.0000 0.28300  0.37200  0.56950  Biso   1.000  C
  C182     1.0000 0.32850  0.42860  0.56730  Biso   1.000  C
  H130     1.0000 0.36320  0.40150  0.56460  Biso   1.000  H
  C183     1.0000 0.32250  0.52530  0.56900  Biso   1.000  C
  H131     1.0000 0.35440  0.56230  0.56830  Biso   1.000  H
  C184     1.0000 0.29790  0.27000  0.57210  Biso   1.000  C
  H132     1.0000 0.33510  0.25170  0.57720  Biso   1.000  H
  C185     1.0000 0.25680  0.20170  0.56690  Biso   1.000  C
  H133     1.0000 0.21990  0.22130  0.56130  Biso   1.000  H
  C186     1.0000 0.31840  0.94920  0.57170  Biso   1.000  C
  H134     1.0000 0.35160  0.91600  0.57090  Biso   1.000  H
  C187     1.0000 0.31790  0.05070  0.56970  Biso   1.000  C
  H135     1.0000 0.35100  0.08370  0.56810  Biso   1.000  H
  C188     1.0000 0.26900  0.10140  0.57000  Biso   1.000  C
  C189     1.0000 0.22100  0.04840  0.57430  Biso   1.000  C
  H136     1.0000 0.18720  0.07930  0.57610  Biso   1.000  H
  C190     1.0000 0.22400  0.95040  0.57580  Biso   1.000  C
  H137     1.0000 0.19130  0.91600  0.57750  Biso   1.000  H
  N24      1.0000 0.46910  0.74680  0.91960  Biso   1.000  N
  H138     1.0000 0.48920  0.74660  0.89350  Biso   1.000  H
  C191     1.0000 0.27290  0.50610  0.23320  Biso   1.000  C
  H139     1.0000 0.27180  0.45740  0.20780  Biso   1.000  H
  C192     1.0000 0.22820  0.52060  0.25730  Biso   1.000  C
  H140     1.0000 0.23010  0.56030  0.28720  Biso   1.000  H
  C193     1.0000 0.07730  0.44270  0.20030  Biso   1.000  C
  H141     1.0000 0.04880  0.44680  0.17220  Biso   1.000  H
  C194     1.0000 0.12980  0.47850  0.19420  Biso   1.000  C
  H142     1.0000 0.13650  0.50650  0.16190  Biso   1.000  H
  C195     1.0000 0.17240  0.47230  0.23630  Biso   1.000  C
  C196     1.0000 0.16250  0.43040  0.28450  Biso   1.000  C
  H143     1.0000 0.19100  0.42630  0.31260  Biso   1.000  H
  C197     1.0000 0.11000  0.39460  0.29060  Biso   1.000  C
  H144     1.0000 0.10340  0.36660  0.32290  Biso   1.000  H
  N25      1.0000 0.06740  0.40080  0.24850  Biso   1.000  N
  N26      1.0000 0.42230  0.67120  0.24690  Biso   1.000  N
  C198     1.0000 0.38030  0.69960  0.27690  Biso   1.000  C
  H145     1.0000 0.38460  0.75460  0.29780  Biso   1.000  H
  C199     1.0000 0.33190  0.64560  0.27550  Biso   1.000  C
  H146     1.0000 0.30380  0.66460  0.29560  Biso   1.000  H
  C200     1.0000 0.32540  0.56330  0.24430  Biso   1.000  C
  C201     1.0000 0.36740  0.53490  0.21430  Biso   1.000  C
  H147     1.0000 0.36310  0.47990  0.19330  Biso   1.000  H
  C202     1.0000 0.41590  0.58890  0.21560  Biso   1.000  C
  H148     1.0000 0.44390  0.56990  0.19560  Biso   1.000  H
  O31      1.0000 0.42920  0.80400  0.11260  Biso   1.000  O
  C203     1.0000 0.25750  0.26090  0.56570  Biso   1.000  C
  H149     1.0000 0.22040  0.24230  0.55940  Biso   1.000  H
  C204     1.0000 0.29790  0.21040  0.57310  Biso   1.000  C
  H150     1.0000 0.33530  0.22740  0.57890  Biso   1.000  H
  C205     1.0000 0.27380  0.50710  0.26210  Biso   1.000  C
  H151     1.0000 0.27110  0.48140  0.29590  Biso   1.000  H
  C206     1.0000 0.22720  0.50000  0.22830  Biso   1.000  C
  H152     1.0000 0.22460  0.51300  0.19180  Biso   1.000  H
  C207     1.0000 0.08640  0.44680  0.28400  Biso   1.000  C
  H153     1.0000 0.05820  0.46720  0.30350  Biso   1.000  H
  C208     1.0000 0.13620  0.49740  0.28700  Biso   1.000  C
  H154     1.0000 0.14120  0.55180  0.30840  Biso   1.000  H
  C209     1.0000 0.17840  0.46680  0.25790  Biso   1.000  C
  C210     1.0000 0.17090  0.38560  0.22580  Biso   1.000  C
  H155     1.0000 0.19910  0.36510  0.20640  Biso   1.000  H
  C211     1.0000 0.12120  0.33490  0.22290  Biso   1.000  C
  H156     1.0000 0.11610  0.28050  0.20140  Biso   1.000  H
  N27      1.0000 0.07890  0.36550  0.25190  Biso   1.000  N
  N28      1.0000 0.43210  0.63580  0.24920  Biso   1.000  N
  C212     1.0000 0.42260  0.58610  0.29530  Biso   1.000  C
  H157     1.0000 0.45050  0.58190  0.32400  Biso   1.000  H
  C213     1.0000 0.37140  0.54270  0.29850  Biso   1.000  C
  H158     1.0000 0.36500  0.50950  0.32930  Biso   1.000  H
  C214     1.0000 0.32960  0.54900  0.25560  Biso   1.000  C
  C215     1.0000 0.33910  0.59870  0.20960  Biso   1.000  C
  H159     1.0000 0.31120  0.60280  0.18090  Biso   1.000  H
  C216     1.0000 0.39040  0.64200  0.20640  Biso   1.000  C
  H160     1.0000 0.39670  0.67530  0.17550  Biso   1.000  H
  O32      1.0000 0.42830  0.73200  0.11490  Biso   1.000  O
  Cd5      1.0000 0.77004  0.76360  0.07897  Biso   1.000  Cd
  O33      1.0000 0.77180  0.76780  0.17180  Biso   1.000  O
  O34      1.0000 0.17710  0.73100  0.57250  Biso   1.000  O
  O35      1.0000 0.00600  0.73590  0.66100  Biso   1.000  O
  N29      1.0000 0.77140  0.59840  0.07490  Biso   1.000  N
  O36      1.0000 0.88090  0.75800  0.43820  Biso   1.000  O
  O37      1.0000 0.85470  0.76450  0.14500  Biso   1.000  O
  O38      1.0000 0.17270  0.76080  0.48630  Biso   1.000  O
  N30      1.0000 0.77430  0.92830  0.07150  Biso   1.000  N
  C217     1.0000 0.84880  0.76250  0.23950  Biso   1.000  C
  C218     1.0000 0.90540  0.75850  0.25320  Biso   1.000  C
  H161     1.0000 0.92880  0.75510  0.22640  Biso   1.000  H
  C219     1.0000 0.92800  0.75970  0.30660  Biso   1.000  C
  H162     1.0000 0.96640  0.76080  0.31530  Biso   1.000  H
  C220     1.0000 0.89360  0.75930  0.34700  Biso   1.000  C
  C221     1.0000 0.83730  0.76120  0.33230  Biso   1.000  C
  H163     1.0000 0.81350  0.76130  0.35880  Biso   1.000  H
  C222     1.0000 0.81490  0.76300  0.27920  Biso   1.000  C
  H164     1.0000 0.77650  0.76450  0.27050  Biso   1.000  H
  C223     1.0000 0.99850  0.75050  0.47180  Biso   1.000  C
  C224     1.0000 0.05620  0.75030  0.47500  Biso   1.000  C
  H165     1.0000 0.07340  0.75320  0.44380  Biso   1.000  H
  C225     1.0000 0.08820  0.74570  0.52420  Biso   1.000  C
  C226     1.0000 0.06240  0.74060  0.57080  Biso   1.000  C
  H166     1.0000 0.08390  0.73730  0.60400  Biso   1.000  H
  C227     1.0000 0.00490  0.74060  0.56790  Biso   1.000  C
  C228     1.0000 0.97280  0.74650  0.51840  Biso   1.000  C
  H167     1.0000 0.93420  0.74770  0.51650  Biso   1.000  H
  C229     1.0000 0.82390  0.76500  0.18190  Biso   1.000  C
  C230     1.0000 0.15070  0.74590  0.52750  Biso   1.000  C
  C231     1.0000 0.97670  0.73570  0.61770  Biso   1.000  C
  C232     1.0000 0.91410  0.75540  0.40570  Biso   1.000  C
  C233     1.0000 0.73060  0.98150  0.07200  Biso   1.000  C
  H168     1.0000 0.69610  0.95260  0.07290  Biso   1.000  H
  C234     1.0000 0.73400  0.08310  0.07110  Biso   1.000  C
  H169     1.0000 0.70180  0.11920  0.07160  Biso   1.000  H
  C235     1.0000 0.78300  0.12800  0.06950  Biso   1.000  C
  C236     1.0000 0.82850  0.07140  0.06730  Biso   1.000  C
  H170     1.0000 0.86320  0.09850  0.06460  Biso   1.000  H
  C237     1.0000 0.82250  0.97470  0.06900  Biso   1.000  C
  H171     1.0000 0.85440  0.93770  0.06830  Biso   1.000  H
  C238     1.0000 0.79790  0.23000  0.07210  Biso   1.000  C
  H172     1.0000 0.83510  0.24830  0.07720  Biso   1.000  H
  C239     1.0000 0.75680  0.29830  0.06690  Biso   1.000  C
  H173     1.0000 0.71990  0.27870  0.06130  Biso   1.000  H
  C240     1.0000 0.81840  0.55080  0.07170  Biso   1.000  C
  H174     1.0000 0.85160  0.58400  0.07090  Biso   1.000  H
  C241     1.0000 0.81790  0.44930  0.06970  Biso   1.000  C
  H175     1.0000 0.85100  0.41630  0.06810  Biso   1.000  H
  C242     1.0000 0.76900  0.39860  0.07000  Biso   1.000  C
  C243     1.0000 0.72100  0.45160  0.07430  Biso   1.000  C
  H176     1.0000 0.68720  0.42070  0.07610  Biso   1.000  H
  C244     1.0000 0.72400  0.54960  0.07580  Biso   1.000  C
  H177     1.0000 0.69130  0.58400  0.07750  Biso   1.000  H
  N31      1.0000 0.96910  0.75320  0.41960  Biso   1.000  N
  H178     1.0000 0.98920  0.75340  0.39350  Biso   1.000  H
  C245     1.0000 0.77290  0.99390  0.73320  Biso   1.000  C
  H179     1.0000 0.77180  0.04260  0.70780  Biso   1.000  H
  C246     1.0000 0.72820  0.97940  0.75730  Biso   1.000  C
  H180     1.0000 0.73010  0.93970  0.78720  Biso   1.000  H
  C247     1.0000 0.57730  0.05730  0.70030  Biso   1.000  C
  H181     1.0000 0.54880  0.05320  0.67220  Biso   1.000  H
  C248     1.0000 0.62980  0.02150  0.69420  Biso   1.000  C
  H182     1.0000 0.63650  0.99350  0.66190  Biso   1.000  H
  C249     1.0000 0.67240  0.02770  0.73630  Biso   1.000  C
  C250     1.0000 0.66250  0.06960  0.78450  Biso   1.000  C
  H183     1.0000 0.69100  0.07370  0.81260  Biso   1.000  H
  C251     1.0000 0.61000  0.10540  0.79060  Biso   1.000  C
  H184     1.0000 0.60340  0.13340  0.82290  Biso   1.000  H
  N32      1.0000 0.56740  0.09920  0.74850  Biso   1.000  N
  N33      1.0000 0.92230  0.82880  0.74690  Biso   1.000  N
  C252     1.0000 0.88030  0.80040  0.77690  Biso   1.000  C
  H185     1.0000 0.88460  0.74540  0.79780  Biso   1.000  H
  C253     1.0000 0.83190  0.85440  0.77550  Biso   1.000  C
  H186     1.0000 0.80380  0.83540  0.79560  Biso   1.000  H
  C254     1.0000 0.82540  0.93670  0.74430  Biso   1.000  C
  C255     1.0000 0.86740  0.96510  0.71430  Biso   1.000  C
  H187     1.0000 0.86310  0.02010  0.69330  Biso   1.000  H
  C256     1.0000 0.91590  0.91110  0.71560  Biso   1.000  C
  H188     1.0000 0.94390  0.93010  0.69560  Biso   1.000  H
  O39      1.0000 0.92920  0.69600  0.61260  Biso   1.000  O
  C257     1.0000 0.75750  0.23910  0.06570  Biso   1.000  C
  H189     1.0000 0.72040  0.25770  0.05940  Biso   1.000  H
  C258     1.0000 0.79790  0.28960  0.07310  Biso   1.000  C
  H190     1.0000 0.83530  0.27260  0.07890  Biso   1.000  H
  C259     1.0000 0.77380  0.99290  0.76210  Biso   1.000  C
  H191     1.0000 0.77110  0.01860  0.79590  Biso   1.000  H
  C260     1.0000 0.72720  0.00000  0.72830  Biso   1.000  C
  H192     1.0000 0.72460  0.98700  0.69180  Biso   1.000  H
  C261     1.0000 0.58640  0.05320  0.78400  Biso   1.000  C
  H193     1.0000 0.55820  0.03280  0.80350  Biso   1.000  H
  C262     1.0000 0.63620  0.00260  0.78700  Biso   1.000  C
  H194     1.0000 0.64120  0.94820  0.80840  Biso   1.000  H
  C263     1.0000 0.67840  0.03320  0.75790  Biso   1.000  C
  C264     1.0000 0.67090  0.11440  0.72580  Biso   1.000  C
  H195     1.0000 0.69910  0.13490  0.70640  Biso   1.000  H
  C265     1.0000 0.62120  0.16510  0.72290  Biso   1.000  C
  H196     1.0000 0.61610  0.21950  0.70140  Biso   1.000  H
  N34      1.0000 0.57890  0.13450  0.75190  Biso   1.000  N
  N35      1.0000 0.93210  0.86420  0.74920  Biso   1.000  N
  C266     1.0000 0.92260  0.91390  0.79530  Biso   1.000  C
  H197     1.0000 0.95050  0.91810  0.82400  Biso   1.000  H
  C267     1.0000 0.87140  0.95730  0.79850  Biso   1.000  C
  H198     1.0000 0.86500  0.99050  0.82930  Biso   1.000  H
  C268     1.0000 0.82960  0.95100  0.75560  Biso   1.000  C
  C269     1.0000 0.83910  0.90130  0.70960  Biso   1.000  C
  H199     1.0000 0.81120  0.89720  0.68090  Biso   1.000  H
  C270     1.0000 0.89040  0.85800  0.70640  Biso   1.000  C
  H200     1.0000 0.89670  0.82470  0.67550  Biso   1.000  H
  O40      1.0000 0.92830  0.76800  0.61490  Biso   1.000  O
  Cd6      1.0000 0.27004  0.26360  0.07897  Biso   1.000  Cd
  O41      1.0000 0.27180  0.26780  0.17180  Biso   1.000  O
  O42      1.0000 0.67710  0.23100  0.57250  Biso   1.000  O
  O43      1.0000 0.50600  0.23590  0.66100  Biso   1.000  O
  N36      1.0000 0.27140  0.09840  0.07490  Biso   1.000  N
  O44      1.0000 0.38090  0.25800  0.43820  Biso   1.000  O
  O45      1.0000 0.35470  0.26450  0.14500  Biso   1.000  O
  O46      1.0000 0.67270  0.26080  0.48630  Biso   1.000  O
  N37      1.0000 0.27430  0.42830  0.07150  Biso   1.000  N
  C271     1.0000 0.34880  0.26250  0.23950  Biso   1.000  C
  C272     1.0000 0.40540  0.25850  0.25320  Biso   1.000  C
  H201     1.0000 0.42880  0.25510  0.22640  Biso   1.000  H
  C273     1.0000 0.42800  0.25970  0.30660  Biso   1.000  C
  H202     1.0000 0.46640  0.26080  0.31530  Biso   1.000  H
  C274     1.0000 0.39360  0.25930  0.34700  Biso   1.000  C
  C275     1.0000 0.33730  0.26120  0.33230  Biso   1.000  C
  H203     1.0000 0.31350  0.26130  0.35880  Biso   1.000  H
  C276     1.0000 0.31490  0.26300  0.27920  Biso   1.000  C
  H204     1.0000 0.27650  0.26450  0.27050  Biso   1.000  H
  C277     1.0000 0.49850  0.25050  0.47180  Biso   1.000  C
  C278     1.0000 0.55620  0.25030  0.47500  Biso   1.000  C
  H205     1.0000 0.57340  0.25320  0.44380  Biso   1.000  H
  C279     1.0000 0.58820  0.24570  0.52420  Biso   1.000  C
  C280     1.0000 0.56240  0.24060  0.57080  Biso   1.000  C
  H206     1.0000 0.58390  0.23730  0.60400  Biso   1.000  H
  C281     1.0000 0.50490  0.24060  0.56790  Biso   1.000  C
  C282     1.0000 0.47280  0.24650  0.51840  Biso   1.000  C
  H207     1.0000 0.43420  0.24770  0.51650  Biso   1.000  H
  C283     1.0000 0.32390  0.26500  0.18190  Biso   1.000  C
  C284     1.0000 0.65070  0.24590  0.52750  Biso   1.000  C
  C285     1.0000 0.47670  0.23570  0.61770  Biso   1.000  C
  C286     1.0000 0.41410  0.25540  0.40570  Biso   1.000  C
  C287     1.0000 0.23060  0.48150  0.07200  Biso   1.000  C
  H208     1.0000 0.19610  0.45260  0.07290  Biso   1.000  H
  C288     1.0000 0.23400  0.58310  0.07110  Biso   1.000  C
  H209     1.0000 0.20180  0.61920  0.07160  Biso   1.000  H
  C289     1.0000 0.28300  0.62800  0.06950  Biso   1.000  C
  C290     1.0000 0.32850  0.57140  0.06730  Biso   1.000  C
  H210     1.0000 0.36320  0.59850  0.06460  Biso   1.000  H
  C291     1.0000 0.32250  0.47470  0.06900  Biso   1.000  C
  H211     1.0000 0.35440  0.43770  0.06830  Biso   1.000  H
  C292     1.0000 0.29790  0.73000  0.07210  Biso   1.000  C
  H212     1.0000 0.33510  0.74830  0.07720  Biso   1.000  H
  C293     1.0000 0.25680  0.79830  0.06690  Biso   1.000  C
  H213     1.0000 0.21990  0.77870  0.06130  Biso   1.000  H
  C294     1.0000 0.31840  0.05080  0.07170  Biso   1.000  C
  H214     1.0000 0.35160  0.08400  0.07090  Biso   1.000  H
  C295     1.0000 0.31790  0.94930  0.06970  Biso   1.000  C
  H215     1.0000 0.35100  0.91630  0.06810  Biso   1.000  H
  C296     1.0000 0.26900  0.89860  0.07000  Biso   1.000  C
  C297     1.0000 0.22100  0.95160  0.07430  Biso   1.000  C
  H216     1.0000 0.18720  0.92070  0.07610  Biso   1.000  H
  C298     1.0000 0.22400  0.04960  0.07580  Biso   1.000  C
  H217     1.0000 0.19130  0.08400  0.07750  Biso   1.000  H
  N38      1.0000 0.46910  0.25320  0.41960  Biso   1.000  N
  H218     1.0000 0.48920  0.25340  0.39350  Biso   1.000  H
  C299     1.0000 0.27290  0.49390  0.73320  Biso   1.000  C
  H219     1.0000 0.27180  0.54260  0.70780  Biso   1.000  H
  C300     1.0000 0.22820  0.47940  0.75730  Biso   1.000  C
  H220     1.0000 0.23010  0.43970  0.78720  Biso   1.000  H
  C301     1.0000 0.07730  0.55730  0.70030  Biso   1.000  C
  H221     1.0000 0.04880  0.55320  0.67220  Biso   1.000  H
  C302     1.0000 0.12980  0.52150  0.69420  Biso   1.000  C
  H222     1.0000 0.13650  0.49350  0.66190  Biso   1.000  H
  C303     1.0000 0.17240  0.52770  0.73630  Biso   1.000  C
  C304     1.0000 0.16250  0.56960  0.78450  Biso   1.000  C
  H223     1.0000 0.19100  0.57370  0.81260  Biso   1.000  H
  C305     1.0000 0.11000  0.60540  0.79060  Biso   1.000  C
  H224     1.0000 0.10340  0.63340  0.82290  Biso   1.000  H
  N39      1.0000 0.06740  0.59920  0.74850  Biso   1.000  N
  N40      1.0000 0.42230  0.32880  0.74690  Biso   1.000  N
  C306     1.0000 0.38030  0.30040  0.77690  Biso   1.000  C
  H225     1.0000 0.38460  0.24540  0.79780  Biso   1.000  H
  C307     1.0000 0.33190  0.35440  0.77550  Biso   1.000  C
  H226     1.0000 0.30380  0.33540  0.79560  Biso   1.000  H
  C308     1.0000 0.32540  0.43670  0.74430  Biso   1.000  C
  C309     1.0000 0.36740  0.46510  0.71430  Biso   1.000  C
  H227     1.0000 0.36310  0.52010  0.69330  Biso   1.000  H
  C310     1.0000 0.41590  0.41110  0.71560  Biso   1.000  C
  H228     1.0000 0.44390  0.43010  0.69560  Biso   1.000  H
  O47      1.0000 0.42920  0.19600  0.61260  Biso   1.000  O
  C311     1.0000 0.25750  0.73910  0.06570  Biso   1.000  C
  H229     1.0000 0.22040  0.75770  0.05940  Biso   1.000  H
  C312     1.0000 0.29790  0.78960  0.07310  Biso   1.000  C
  H230     1.0000 0.33530  0.77260  0.07890  Biso   1.000  H
  C313     1.0000 0.27380  0.49290  0.76210  Biso   1.000  C
  H231     1.0000 0.27110  0.51860  0.79590  Biso   1.000  H
  C314     1.0000 0.22720  0.50000  0.72830  Biso   1.000  C
  H232     1.0000 0.22460  0.48700  0.69180  Biso   1.000  H
  C315     1.0000 0.08640  0.55320  0.78400  Biso   1.000  C
  H233     1.0000 0.05820  0.53280  0.80350  Biso   1.000  H
  C316     1.0000 0.13620  0.50260  0.78700  Biso   1.000  C
  H234     1.0000 0.14120  0.44820  0.80840  Biso   1.000  H
  C317     1.0000 0.17840  0.53320  0.75790  Biso   1.000  C
  C318     1.0000 0.17090  0.61440  0.72580  Biso   1.000  C
  H235     1.0000 0.19910  0.63490  0.70640  Biso   1.000  H
  C319     1.0000 0.12120  0.66510  0.72290  Biso   1.000  C
  H236     1.0000 0.11610  0.71950  0.70140  Biso   1.000  H
  N41      1.0000 0.07890  0.63450  0.75190  Biso   1.000  N
  N42      1.0000 0.43210  0.36420  0.74920  Biso   1.000  N
  C320     1.0000 0.42260  0.41390  0.79530  Biso   1.000  C
  H237     1.0000 0.45050  0.41810  0.82400  Biso   1.000  H
  C321     1.0000 0.37140  0.45730  0.79850  Biso   1.000  C
  H238     1.0000 0.36500  0.49050  0.82930  Biso   1.000  H
  C322     1.0000 0.32960  0.45100  0.75560  Biso   1.000  C
  C323     1.0000 0.33910  0.40130  0.70960  Biso   1.000  C
  H239     1.0000 0.31120  0.39720  0.68090  Biso   1.000  H
  C324     1.0000 0.39040  0.35800  0.70640  Biso   1.000  C
  H240     1.0000 0.39670  0.32470  0.67550  Biso   1.000  H
  O48      1.0000 0.42830  0.26800  0.61490  Biso   1.000  O
  Cd7      1.0000 0.22996  0.76360  0.42103  Biso   1.000  Cd
  O49      1.0000 0.22820  0.76780  0.32820  Biso   1.000  O
  O50      1.0000 0.82290  0.73100  0.92750  Biso   1.000  O
  O51      1.0000 0.99400  0.73590  0.83900  Biso   1.000  O
  N43      1.0000 0.22860  0.59840  0.42510  Biso   1.000  N
  O52      1.0000 0.11910  0.75800  0.06180  Biso   1.000  O
  O53      1.0000 0.14530  0.76450  0.35500  Biso   1.000  O
  O54      1.0000 0.82730  0.76080  0.01370  Biso   1.000  O
  N44      1.0000 0.22570  0.92830  0.42850  Biso   1.000  N
  C325     1.0000 0.15120  0.76250  0.26050  Biso   1.000  C
  C326     1.0000 0.09460  0.75850  0.24680  Biso   1.000  C
  H241     1.0000 0.07120  0.75510  0.27360  Biso   1.000  H
  C327     1.0000 0.07200  0.75970  0.19340  Biso   1.000  C
  H242     1.0000 0.03360  0.76080  0.18470  Biso   1.000  H
  C328     1.0000 0.10640  0.75930  0.15300  Biso   1.000  C
  C329     1.0000 0.16270  0.76120  0.16770  Biso   1.000  C
  H243     1.0000 0.18650  0.76130  0.14120  Biso   1.000  H
  C330     1.0000 0.18510  0.76300  0.22080  Biso   1.000  C
  H244     1.0000 0.22350  0.76450  0.22950  Biso   1.000  H
  C331     1.0000 0.00150  0.75050  0.02820  Biso   1.000  C
  C332     1.0000 0.94380  0.75030  0.02500  Biso   1.000  C
  H245     1.0000 0.92660  0.75320  0.05620  Biso   1.000  H
  C333     1.0000 0.91180  0.74570  0.97580  Biso   1.000  C
  C334     1.0000 0.93760  0.74060  0.92920  Biso   1.000  C
  H246     1.0000 0.91610  0.73730  0.89600  Biso   1.000  H
  C335     1.0000 0.99510  0.74060  0.93210  Biso   1.000  C
  C336     1.0000 0.02720  0.74650  0.98160  Biso   1.000  C
  H247     1.0000 0.06580  0.74770  0.98350  Biso   1.000  H
  C337     1.0000 0.17610  0.76500  0.31810  Biso   1.000  C
  C338     1.0000 0.84930  0.74590  0.97250  Biso   1.000  C
  C339     1.0000 0.02330  0.73570  0.88230  Biso   1.000  C
  C340     1.0000 0.08590  0.75540  0.09430  Biso   1.000  C
  C341     1.0000 0.26940  0.98150  0.42800  Biso   1.000  C
  H248     1.0000 0.30390  0.95260  0.42710  Biso   1.000  H
  C342     1.0000 0.26600  0.08310  0.42890  Biso   1.000  C
  H249     1.0000 0.29820  0.11920  0.42840  Biso   1.000  H
  C343     1.0000 0.21700  0.12800  0.43050  Biso   1.000  C
  C344     1.0000 0.17150  0.07140  0.43270  Biso   1.000  C
  H250     1.0000 0.13680  0.09850  0.43540  Biso   1.000  H
  C345     1.0000 0.17750  0.97470  0.43100  Biso   1.000  C
  H251     1.0000 0.14560  0.93770  0.43170  Biso   1.000  H
  C346     1.0000 0.20210  0.23000  0.42790  Biso   1.000  C
  H252     1.0000 0.16490  0.24830  0.42280  Biso   1.000  H
  C347     1.0000 0.24320  0.29830  0.43310  Biso   1.000  C
  H253     1.0000 0.28010  0.27870  0.43870  Biso   1.000  H
  C348     1.0000 0.18160  0.55080  0.42830  Biso   1.000  C
  H254     1.0000 0.14840  0.58400  0.42910  Biso   1.000  H
  C349     1.0000 0.18210  0.44930  0.43030  Biso   1.000  C
  H255     1.0000 0.14900  0.41630  0.43190  Biso   1.000  H
  C350     1.0000 0.23100  0.39860  0.43000  Biso   1.000  C
  C351     1.0000 0.27900  0.45160  0.42570  Biso   1.000  C
  H256     1.0000 0.31280  0.42070  0.42390  Biso   1.000  H
  C352     1.0000 0.27600  0.54960  0.42420  Biso   1.000  C
  H257     1.0000 0.30870  0.58400  0.42250  Biso   1.000  H
  N45      1.0000 0.03090  0.75320  0.08040  Biso   1.000  N
  H258     1.0000 0.01080  0.75340  0.10650  Biso   1.000  H
  C353     1.0000 0.22710  0.99390  0.76680  Biso   1.000  C
  H259     1.0000 0.22820  0.04260  0.79220  Biso   1.000  H
  C354     1.0000 0.27180  0.97940  0.74270  Biso   1.000  C
  H260     1.0000 0.26990  0.93970  0.71280  Biso   1.000  H
  C355     1.0000 0.42270  0.05730  0.79970  Biso   1.000  C
  H261     1.0000 0.45120  0.05320  0.82780  Biso   1.000  H
  C356     1.0000 0.37020  0.02150  0.80580  Biso   1.000  C
  H262     1.0000 0.36350  0.99350  0.83810  Biso   1.000  H
  C357     1.0000 0.32760  0.02770  0.76370  Biso   1.000  C
  C358     1.0000 0.33750  0.06960  0.71550  Biso   1.000  C
  H263     1.0000 0.30900  0.07370  0.68740  Biso   1.000  H
  C359     1.0000 0.39000  0.10540  0.70940  Biso   1.000  C
  H264     1.0000 0.39660  0.13340  0.67710  Biso   1.000  H
  N46      1.0000 0.43260  0.09920  0.75150  Biso   1.000  N
  N47      1.0000 0.07770  0.82880  0.75310  Biso   1.000  N
  C360     1.0000 0.11970  0.80040  0.72310  Biso   1.000  C
  H265     1.0000 0.11540  0.74540  0.70220  Biso   1.000  H
  C361     1.0000 0.16810  0.85440  0.72450  Biso   1.000  C
  H266     1.0000 0.19620  0.83540  0.70440  Biso   1.000  H
  C362     1.0000 0.17460  0.93670  0.75570  Biso   1.000  C
  C363     1.0000 0.13260  0.96510  0.78570  Biso   1.000  C
  H267     1.0000 0.13690  0.02010  0.80670  Biso   1.000  H
  C364     1.0000 0.08410  0.91110  0.78440  Biso   1.000  C
  H268     1.0000 0.05610  0.93010  0.80440  Biso   1.000  H
  O55      1.0000 0.07080  0.69600  0.88740  Biso   1.000  O
  C365     1.0000 0.24250  0.23910  0.43430  Biso   1.000  C
  H269     1.0000 0.27960  0.25770  0.44060  Biso   1.000  H
  C366     1.0000 0.20210  0.28960  0.42690  Biso   1.000  C
  H270     1.0000 0.16470  0.27260  0.42110  Biso   1.000  H
  C367     1.0000 0.22620  0.99290  0.73790  Biso   1.000  C
  H271     1.0000 0.22890  0.01860  0.70410  Biso   1.000  H
  C368     1.0000 0.27280  0.00000  0.77170  Biso   1.000  C
  H272     1.0000 0.27540  0.98700  0.80820  Biso   1.000  H
  C369     1.0000 0.41360  0.05320  0.71600  Biso   1.000  C
  H273     1.0000 0.44180  0.03280  0.69650  Biso   1.000  H
  C370     1.0000 0.36380  0.00260  0.71300  Biso   1.000  C
  H274     1.0000 0.35880  0.94820  0.69160  Biso   1.000  H
  C371     1.0000 0.32160  0.03320  0.74210  Biso   1.000  C
  C372     1.0000 0.32910  0.11440  0.77420  Biso   1.000  C
  H275     1.0000 0.30090  0.13490  0.79360  Biso   1.000  H
  C373     1.0000 0.37880  0.16510  0.77710  Biso   1.000  C
  H276     1.0000 0.38390  0.21950  0.79860  Biso   1.000  H
  N48      1.0000 0.42110  0.13450  0.74810  Biso   1.000  N
  N49      1.0000 0.06790  0.86420  0.75080  Biso   1.000  N
  C374     1.0000 0.07740  0.91390  0.70470  Biso   1.000  C
  H277     1.0000 0.04950  0.91810  0.67600  Biso   1.000  H
  C375     1.0000 0.12860  0.95730  0.70150  Biso   1.000  C
  H278     1.0000 0.13500  0.99050  0.67070  Biso   1.000  H
  C376     1.0000 0.17040  0.95100  0.74440  Biso   1.000  C
  C377     1.0000 0.16090  0.90130  0.79040  Biso   1.000  C
  H279     1.0000 0.18880  0.89720  0.81910  Biso   1.000  H
  C378     1.0000 0.10960  0.85800  0.79360  Biso   1.000  C
  H280     1.0000 0.10330  0.82470  0.82450  Biso   1.000  H
  O56      1.0000 0.07170  0.76800  0.88510  Biso   1.000  O
  Cd8      1.0000 0.72996  0.26360  0.42103  Biso   1.000  Cd
  O57      1.0000 0.72820  0.26780  0.32820  Biso   1.000  O
  O58      1.0000 0.32290  0.23100  0.92750  Biso   1.000  O
  O59      1.0000 0.49400  0.23590  0.83900  Biso   1.000  O
  N50      1.0000 0.72860  0.09840  0.42510  Biso   1.000  N
  O60      1.0000 0.61910  0.25800  0.06180  Biso   1.000  O
  O61      1.0000 0.64530  0.26450  0.35500  Biso   1.000  O
  O62      1.0000 0.32730  0.26080  0.01370  Biso   1.000  O
  N51      1.0000 0.72570  0.42830  0.42850  Biso   1.000  N
  C379     1.0000 0.65120  0.26250  0.26050  Biso   1.000  C
  C380     1.0000 0.59460  0.25850  0.24680  Biso   1.000  C
  H281     1.0000 0.57120  0.25510  0.27360  Biso   1.000  H
  C381     1.0000 0.57200  0.25970  0.19340  Biso   1.000  C
  H282     1.0000 0.53360  0.26080  0.18470  Biso   1.000  H
  C382     1.0000 0.60640  0.25930  0.15300  Biso   1.000  C
  C383     1.0000 0.66270  0.26120  0.16770  Biso   1.000  C
  H283     1.0000 0.68650  0.26130  0.14120  Biso   1.000  H
  C384     1.0000 0.68510  0.26300  0.22080  Biso   1.000  C
  H284     1.0000 0.72350  0.26450  0.22950  Biso   1.000  H
  C385     1.0000 0.50150  0.25050  0.02820  Biso   1.000  C
  C386     1.0000 0.44380  0.25030  0.02500  Biso   1.000  C
  H285     1.0000 0.42660  0.25320  0.05620  Biso   1.000  H
  C387     1.0000 0.41180  0.24570  0.97580  Biso   1.000  C
  C388     1.0000 0.43760  0.24060  0.92920  Biso   1.000  C
  H286     1.0000 0.41610  0.23730  0.89600  Biso   1.000  H
  C389     1.0000 0.49510  0.24060  0.93210  Biso   1.000  C
  C390     1.0000 0.52720  0.24650  0.98160  Biso   1.000  C
  H287     1.0000 0.56580  0.24770  0.98350  Biso   1.000  H
  C391     1.0000 0.67610  0.26500  0.31810  Biso   1.000  C
  C392     1.0000 0.34930  0.24590  0.97250  Biso   1.000  C
  C393     1.0000 0.52330  0.23570  0.88230  Biso   1.000  C
  C394     1.0000 0.58590  0.25540  0.09430  Biso   1.000  C
  C395     1.0000 0.76940  0.48150  0.42800  Biso   1.000  C
  H288     1.0000 0.80390  0.45260  0.42710  Biso   1.000  H
  C396     1.0000 0.76600  0.58310  0.42890  Biso   1.000  C
  H289     1.0000 0.79820  0.61920  0.42840  Biso   1.000  H
  C397     1.0000 0.71700  0.62800  0.43050  Biso   1.000  C
  C398     1.0000 0.67150  0.57140  0.43270  Biso   1.000  C
  H290     1.0000 0.63680  0.59850  0.43540  Biso   1.000  H
  C399     1.0000 0.67750  0.47470  0.43100  Biso   1.000  C
  H291     1.0000 0.64560  0.43770  0.43170  Biso   1.000  H
  C400     1.0000 0.70210  0.73000  0.42790  Biso   1.000  C
  H292     1.0000 0.66490  0.74830  0.42280  Biso   1.000  H
  C401     1.0000 0.74320  0.79830  0.43310  Biso   1.000  C
  H293     1.0000 0.78010  0.77870  0.43870  Biso   1.000  H
  C402     1.0000 0.68160  0.05080  0.42830  Biso   1.000  C
  H294     1.0000 0.64840  0.08400  0.42910  Biso   1.000  H
  C403     1.0000 0.68210  0.94930  0.43030  Biso   1.000  C
  H295     1.0000 0.64900  0.91630  0.43190  Biso   1.000  H
  C404     1.0000 0.73100  0.89860  0.43000  Biso   1.000  C
  C405     1.0000 0.77900  0.95160  0.42570  Biso   1.000  C
  H296     1.0000 0.81280  0.92070  0.42390  Biso   1.000  H
  C406     1.0000 0.77600  0.04960  0.42420  Biso   1.000  C
  H297     1.0000 0.80870  0.08400  0.42250  Biso   1.000  H
  N52      1.0000 0.53090  0.25320  0.08040  Biso   1.000  N
  H298     1.0000 0.51080  0.25340  0.10650  Biso   1.000  H
  C407     1.0000 0.72710  0.49390  0.76680  Biso   1.000  C
  H299     1.0000 0.72820  0.54260  0.79220  Biso   1.000  H
  C408     1.0000 0.77180  0.47940  0.74270  Biso   1.000  C
  H300     1.0000 0.76990  0.43970  0.71280  Biso   1.000  H
  C409     1.0000 0.92270  0.55730  0.79970  Biso   1.000  C
  H301     1.0000 0.95120  0.55320  0.82780  Biso   1.000  H
  C410     1.0000 0.87020  0.52150  0.80580  Biso   1.000  C
  H302     1.0000 0.86350  0.49350  0.83810  Biso   1.000  H
  C411     1.0000 0.82760  0.52770  0.76370  Biso   1.000  C
  C412     1.0000 0.83750  0.56960  0.71550  Biso   1.000  C
  H303     1.0000 0.80900  0.57370  0.68740  Biso   1.000  H
  C413     1.0000 0.89000  0.60540  0.70940  Biso   1.000  C
  H304     1.0000 0.89660  0.63340  0.67710  Biso   1.000  H
  N53      1.0000 0.93260  0.59920  0.75150  Biso   1.000  N
  N54      1.0000 0.57770  0.32880  0.75310  Biso   1.000  N
  C414     1.0000 0.61970  0.30040  0.72310  Biso   1.000  C
  H305     1.0000 0.61540  0.24540  0.70220  Biso   1.000  H
  C415     1.0000 0.66810  0.35440  0.72450  Biso   1.000  C
  H306     1.0000 0.69620  0.33540  0.70440  Biso   1.000  H
  C416     1.0000 0.67460  0.43670  0.75570  Biso   1.000  C
  C417     1.0000 0.63260  0.46510  0.78570  Biso   1.000  C
  H307     1.0000 0.63690  0.52010  0.80670  Biso   1.000  H
  C418     1.0000 0.58410  0.41110  0.78440  Biso   1.000  C
  H308     1.0000 0.55610  0.43010  0.80440  Biso   1.000  H
  O63      1.0000 0.57080  0.19600  0.88740  Biso   1.000  O
  C419     1.0000 0.74250  0.73910  0.43430  Biso   1.000  C
  H309     1.0000 0.77960  0.75770  0.44060  Biso   1.000  H
  C420     1.0000 0.70210  0.78960  0.42690  Biso   1.000  C
  H310     1.0000 0.66470  0.77260  0.42110  Biso   1.000  H
  C421     1.0000 0.72620  0.49290  0.73790  Biso   1.000  C
  H311     1.0000 0.72890  0.51860  0.70410  Biso   1.000  H
  C422     1.0000 0.77280  0.50000  0.77170  Biso   1.000  C
  H312     1.0000 0.77540  0.48700  0.80820  Biso   1.000  H
  C423     1.0000 0.91360  0.55320  0.71600  Biso   1.000  C
  H313     1.0000 0.94180  0.53280  0.69650  Biso   1.000  H
  C424     1.0000 0.86380  0.50260  0.71300  Biso   1.000  C
  H314     1.0000 0.85880  0.44820  0.69160  Biso   1.000  H
  C425     1.0000 0.82160  0.53320  0.74210  Biso   1.000  C
  C426     1.0000 0.82910  0.61440  0.77420  Biso   1.000  C
  H315     1.0000 0.80090  0.63490  0.79360  Biso   1.000  H
  C427     1.0000 0.87880  0.66510  0.77710  Biso   1.000  C
  H316     1.0000 0.88390  0.71950  0.79860  Biso   1.000  H
  N55      1.0000 0.92110  0.63450  0.74810  Biso   1.000  N
  N56      1.0000 0.56790  0.36420  0.75080  Biso   1.000  N
  C428     1.0000 0.57740  0.41390  0.70470  Biso   1.000  C
  H317     1.0000 0.54950  0.41810  0.67600  Biso   1.000  H
  C429     1.0000 0.62860  0.45730  0.70150  Biso   1.000  C
  H318     1.0000 0.63500  0.49050  0.67070  Biso   1.000  H
  C430     1.0000 0.67040  0.45100  0.74440  Biso   1.000  C
  C431     1.0000 0.66090  0.40130  0.79040  Biso   1.000  C
  H319     1.0000 0.68880  0.39720  0.81910  Biso   1.000  H
  C432     1.0000 0.60960  0.35800  0.79360  Biso   1.000  C
  H320     1.0000 0.60330  0.32470  0.82450  Biso   1.000  H
  O64      1.0000 0.57170  0.26800  0.88510  Biso   1.000  O
  Cd9      1.0000 0.00000  0.26758  0.25000  Biso   1.000  Cd
  Cd10     1.0000 0.50000  0.76758  0.25000  Biso   1.000  Cd
  Cd11     1.0000 0.00000  0.73242  0.75000  Biso   1.000  Cd
  Cd12     1.0000 0.50000  0.23242  0.75000  Biso   1.000  Cd
