data_image0
_cell_length_a       40.77
_cell_length_b       40.77
_cell_length_c       40.77
_cell_angle_alpha    90
_cell_angle_beta     90
_cell_angle_gamma    90

_symmetry_space_group_name_H-M    "P 1"
_symmetry_int_tables_number       1

loop_
  _symmetry_equiv_pos_as_xyz
  'x, y, z'

loop_
  _atom_site_label
  _atom_site_occupancy
  _atom_site_fract_x
  _atom_site_fract_y
  _atom_site_fract_z
  _atom_site_thermal_displace_type
  _atom_site_B_iso_or_equiv
  _atom_site_type_symbol
  O1       1.0000 0.01470  0.31244  0.06500  Biso   1.000  O
  H1       1.0000 0.05520  0.33280  0.17410  Biso   1.000  H
  H2       1.0000 0.07320  0.29610  0.17690  Biso   1.000  H
  H3       1.0000 0.07310  0.32060  0.20560  Biso   1.000  H
  O2       1.0000 0.01470  0.81244  0.56500  Biso   1.000  O
  H4       1.0000 0.05520  0.83280  0.67410  Biso   1.000  H
  H5       1.0000 0.07320  0.79610  0.67690  Biso   1.000  H
  H6       1.0000 0.07310  0.82060  0.70560  Biso   1.000  H
  O3       1.0000 0.51470  0.31244  0.56500  Biso   1.000  O
  H7       1.0000 0.55520  0.33280  0.67410  Biso   1.000  H
  H8       1.0000 0.57320  0.29610  0.67690  Biso   1.000  H
  H9       1.0000 0.57310  0.32060  0.70560  Biso   1.000  H
  O4       1.0000 0.51470  0.81244  0.06500  Biso   1.000  O
  H10      1.0000 0.55520  0.83280  0.17410  Biso   1.000  H
  H11      1.0000 0.57320  0.79610  0.17690  Biso   1.000  H
  H12      1.0000 0.57310  0.82060  0.20560  Biso   1.000  H
  O5       1.0000 0.98530  0.68756  0.06500  Biso   1.000  O
  H13      1.0000 0.94480  0.66720  0.17410  Biso   1.000  H
  H14      1.0000 0.92680  0.70390  0.17690  Biso   1.000  H
  H15      1.0000 0.92690  0.67940  0.20560  Biso   1.000  H
  O6       1.0000 0.98530  0.18756  0.56500  Biso   1.000  O
  H16      1.0000 0.94480  0.16720  0.67410  Biso   1.000  H
  H17      1.0000 0.92680  0.20390  0.67690  Biso   1.000  H
  H18      1.0000 0.92690  0.17940  0.70560  Biso   1.000  H
  O7       1.0000 0.48530  0.68756  0.56500  Biso   1.000  O
  H19      1.0000 0.44480  0.66720  0.67410  Biso   1.000  H
  H20      1.0000 0.42680  0.70390  0.67690  Biso   1.000  H
  H21      1.0000 0.42690  0.67940  0.70560  Biso   1.000  H
  O8       1.0000 0.48530  0.18756  0.06500  Biso   1.000  O
  H22      1.0000 0.44480  0.16720  0.17410  Biso   1.000  H
  H23      1.0000 0.42680  0.20390  0.17690  Biso   1.000  H
  H24      1.0000 0.42690  0.17940  0.20560  Biso   1.000  H
  O9       1.0000 0.98530  0.31244  0.93500  Biso   1.000  O
  H25      1.0000 0.94480  0.33280  0.82590  Biso   1.000  H
  H26      1.0000 0.92680  0.29610  0.82310  Biso   1.000  H
  H27      1.0000 0.92690  0.32060  0.79440  Biso   1.000  H
  O10      1.0000 0.98530  0.81244  0.43500  Biso   1.000  O
  H28      1.0000 0.94480  0.83280  0.32590  Biso   1.000  H
  H29      1.0000 0.92680  0.79610  0.32310  Biso   1.000  H
  H30      1.0000 0.92690  0.82060  0.29440  Biso   1.000  H
  O11      1.0000 0.48530  0.31244  0.43500  Biso   1.000  O
  H31      1.0000 0.44480  0.33280  0.32590  Biso   1.000  H
  H32      1.0000 0.42680  0.29610  0.32310  Biso   1.000  H
  H33      1.0000 0.42690  0.32060  0.29440  Biso   1.000  H
  O12      1.0000 0.48530  0.81244  0.93500  Biso   1.000  O
  H34      1.0000 0.44480  0.83280  0.82590  Biso   1.000  H
  H35      1.0000 0.42680  0.79610  0.82310  Biso   1.000  H
  H36      1.0000 0.42690  0.82060  0.79440  Biso   1.000  H
  O13      1.0000 0.01470  0.68756  0.93500  Biso   1.000  O
  H37      1.0000 0.05520  0.66720  0.82590  Biso   1.000  H
  H38      1.0000 0.07320  0.70390  0.82310  Biso   1.000  H
  H39      1.0000 0.07310  0.67940  0.79440  Biso   1.000  H
  O14      1.0000 0.01470  0.18756  0.43500  Biso   1.000  O
  H40      1.0000 0.05520  0.16720  0.32590  Biso   1.000  H
  H41      1.0000 0.07320  0.20390  0.32310  Biso   1.000  H
  H42      1.0000 0.07310  0.17940  0.29440  Biso   1.000  H
  O15      1.0000 0.51470  0.68756  0.43500  Biso   1.000  O
  H43      1.0000 0.55520  0.66720  0.32590  Biso   1.000  H
  H44      1.0000 0.57320  0.70390  0.32310  Biso   1.000  H
  H45      1.0000 0.57310  0.67940  0.29440  Biso   1.000  H
  O16      1.0000 0.51470  0.18756  0.93500  Biso   1.000  O
  H46      1.0000 0.55520  0.16720  0.82590  Biso   1.000  H
  H47      1.0000 0.57320  0.20390  0.82310  Biso   1.000  H
  H48      1.0000 0.57310  0.17940  0.79440  Biso   1.000  H
  O17      1.0000 0.06500  0.01470  0.31244  Biso   1.000  O
  H49      1.0000 0.17410  0.05520  0.33280  Biso   1.000  H
  H50      1.0000 0.17690  0.07320  0.29610  Biso   1.000  H
  H51      1.0000 0.20560  0.07310  0.32060  Biso   1.000  H
  O18      1.0000 0.06500  0.51470  0.81244  Biso   1.000  O
  H52      1.0000 0.17410  0.55520  0.83280  Biso   1.000  H
  H53      1.0000 0.17690  0.57320  0.79610  Biso   1.000  H
  H54      1.0000 0.20560  0.57310  0.82060  Biso   1.000  H
  O19      1.0000 0.56500  0.01470  0.81244  Biso   1.000  O
  H55      1.0000 0.67410  0.05520  0.83280  Biso   1.000  H
  H56      1.0000 0.67690  0.07320  0.79610  Biso   1.000  H
  H57      1.0000 0.70560  0.07310  0.82060  Biso   1.000  H
  O20      1.0000 0.56500  0.51470  0.31244  Biso   1.000  O
  H58      1.0000 0.67410  0.55520  0.33280  Biso   1.000  H
  H59      1.0000 0.67690  0.57320  0.29610  Biso   1.000  H
  H60      1.0000 0.70560  0.57310  0.32060  Biso   1.000  H
  O21      1.0000 0.06500  0.98530  0.68756  Biso   1.000  O
  H61      1.0000 0.17410  0.94480  0.66720  Biso   1.000  H
  H62      1.0000 0.17690  0.92680  0.70390  Biso   1.000  H
  H63      1.0000 0.20560  0.92690  0.67940  Biso   1.000  H
  O22      1.0000 0.06500  0.48530  0.18756  Biso   1.000  O
  H64      1.0000 0.17410  0.44480  0.16720  Biso   1.000  H
  H65      1.0000 0.17690  0.42680  0.20390  Biso   1.000  H
  H66      1.0000 0.20560  0.42690  0.17940  Biso   1.000  H
  O23      1.0000 0.56500  0.98530  0.18756  Biso   1.000  O
  H67      1.0000 0.67410  0.94480  0.16720  Biso   1.000  H
  H68      1.0000 0.67690  0.92680  0.20390  Biso   1.000  H
  H69      1.0000 0.70560  0.92690  0.17940  Biso   1.000  H
  O24      1.0000 0.56500  0.48530  0.68756  Biso   1.000  O
  H70      1.0000 0.67410  0.44480  0.66720  Biso   1.000  H
  H71      1.0000 0.67690  0.42680  0.70390  Biso   1.000  H
  H72      1.0000 0.70560  0.42690  0.67940  Biso   1.000  H
  O25      1.0000 0.93500  0.98530  0.31244  Biso   1.000  O
  H73      1.0000 0.82590  0.94480  0.33280  Biso   1.000  H
  H74      1.0000 0.82310  0.92680  0.29610  Biso   1.000  H
  H75      1.0000 0.79440  0.92690  0.32060  Biso   1.000  H
  O26      1.0000 0.93500  0.48530  0.81244  Biso   1.000  O
  H76      1.0000 0.82590  0.44480  0.83280  Biso   1.000  H
  H77      1.0000 0.82310  0.42680  0.79610  Biso   1.000  H
  H78      1.0000 0.79440  0.42690  0.82060  Biso   1.000  H
  O27      1.0000 0.43500  0.98530  0.81244  Biso   1.000  O
  H79      1.0000 0.32590  0.94480  0.83280  Biso   1.000  H
  H80      1.0000 0.32310  0.92680  0.79610  Biso   1.000  H
  H81      1.0000 0.29440  0.92690  0.82060  Biso   1.000  H
  O28      1.0000 0.43500  0.48530  0.31244  Biso   1.000  O
  H82      1.0000 0.32590  0.44480  0.33280  Biso   1.000  H
  H83      1.0000 0.32310  0.42680  0.29610  Biso   1.000  H
  H84      1.0000 0.29440  0.42690  0.32060  Biso   1.000  H
  O29      1.0000 0.93500  0.01470  0.68756  Biso   1.000  O
  H85      1.0000 0.82590  0.05520  0.66720  Biso   1.000  H
  H86      1.0000 0.82310  0.07320  0.70390  Biso   1.000  H
  H87      1.0000 0.79440  0.07310  0.67940  Biso   1.000  H
  O30      1.0000 0.93500  0.51470  0.18756  Biso   1.000  O
  H88      1.0000 0.82590  0.55520  0.16720  Biso   1.000  H
  H89      1.0000 0.82310  0.57320  0.20390  Biso   1.000  H
  H90      1.0000 0.79440  0.57310  0.17940  Biso   1.000  H
  O31      1.0000 0.43500  0.01470  0.18756  Biso   1.000  O
  H91      1.0000 0.32590  0.05520  0.16720  Biso   1.000  H
  H92      1.0000 0.32310  0.07320  0.20390  Biso   1.000  H
  H93      1.0000 0.29440  0.07310  0.17940  Biso   1.000  H
  O32      1.0000 0.43500  0.51470  0.68756  Biso   1.000  O
  H94      1.0000 0.32590  0.55520  0.66720  Biso   1.000  H
  H95      1.0000 0.32310  0.57320  0.70390  Biso   1.000  H
  H96      1.0000 0.29440  0.57310  0.67940  Biso   1.000  H
  O33      1.0000 0.31244  0.06500  0.01470  Biso   1.000  O
  H97      1.0000 0.33280  0.17410  0.05520  Biso   1.000  H
  H98      1.0000 0.29610  0.17690  0.07320  Biso   1.000  H
  H99      1.0000 0.32060  0.20560  0.07310  Biso   1.000  H
  O34      1.0000 0.31244  0.56500  0.51470  Biso   1.000  O
  H100     1.0000 0.33280  0.67410  0.55520  Biso   1.000  H
  H101     1.0000 0.29610  0.67690  0.57320  Biso   1.000  H
  H102     1.0000 0.32060  0.70560  0.57310  Biso   1.000  H
  O35      1.0000 0.81244  0.06500  0.51470  Biso   1.000  O
  H103     1.0000 0.83280  0.17410  0.55520  Biso   1.000  H
  H104     1.0000 0.79610  0.17690  0.57320  Biso   1.000  H
  H105     1.0000 0.82060  0.20560  0.57310  Biso   1.000  H
  O36      1.0000 0.81244  0.56500  0.01470  Biso   1.000  O
  H106     1.0000 0.83280  0.67410  0.05520  Biso   1.000  H
  H107     1.0000 0.79610  0.67690  0.07320  Biso   1.000  H
  H108     1.0000 0.82060  0.70560  0.07310  Biso   1.000  H
  O37      1.0000 0.68756  0.06500  0.98530  Biso   1.000  O
  H109     1.0000 0.66720  0.17410  0.94480  Biso   1.000  H
  H110     1.0000 0.70390  0.17690  0.92680  Biso   1.000  H
  H111     1.0000 0.67940  0.20560  0.92690  Biso   1.000  H
  O38      1.0000 0.68756  0.56500  0.48530  Biso   1.000  O
  H112     1.0000 0.66720  0.67410  0.44480  Biso   1.000  H
  H113     1.0000 0.70390  0.67690  0.42680  Biso   1.000  H
  H114     1.0000 0.67940  0.70560  0.42690  Biso   1.000  H
  O39      1.0000 0.18756  0.06500  0.48530  Biso   1.000  O
  H115     1.0000 0.16720  0.17410  0.44480  Biso   1.000  H
  H116     1.0000 0.20390  0.17690  0.42680  Biso   1.000  H
  H117     1.0000 0.17940  0.20560  0.42690  Biso   1.000  H
  O40      1.0000 0.18756  0.56500  0.98530  Biso   1.000  O
  H118     1.0000 0.16720  0.67410  0.94480  Biso   1.000  H
  H119     1.0000 0.20390  0.67690  0.92680  Biso   1.000  H
  H120     1.0000 0.17940  0.70560  0.92690  Biso   1.000  H
  O41      1.0000 0.31244  0.93500  0.98530  Biso   1.000  O
  H121     1.0000 0.33280  0.82590  0.94480  Biso   1.000  H
  H122     1.0000 0.29610  0.82310  0.92680  Biso   1.000  H
  H123     1.0000 0.32060  0.79440  0.92690  Biso   1.000  H
  O42      1.0000 0.31244  0.43500  0.48530  Biso   1.000  O
  H124     1.0000 0.33280  0.32590  0.44480  Biso   1.000  H
  H125     1.0000 0.29610  0.32310  0.42680  Biso   1.000  H
  H126     1.0000 0.32060  0.29440  0.42690  Biso   1.000  H
  O43      1.0000 0.81244  0.93500  0.48530  Biso   1.000  O
  H127     1.0000 0.83280  0.82590  0.44480  Biso   1.000  H
  H128     1.0000 0.79610  0.82310  0.42680  Biso   1.000  H
  H129     1.0000 0.82060  0.79440  0.42690  Biso   1.000  H
  O44      1.0000 0.81244  0.43500  0.98530  Biso   1.000  O
  H130     1.0000 0.83280  0.32590  0.94480  Biso   1.000  H
  H131     1.0000 0.79610  0.32310  0.92680  Biso   1.000  H
  H132     1.0000 0.82060  0.29440  0.92690  Biso   1.000  H
  O45      1.0000 0.68756  0.93500  0.01470  Biso   1.000  O
  H133     1.0000 0.66720  0.82590  0.05520  Biso   1.000  H
  H134     1.0000 0.70390  0.82310  0.07320  Biso   1.000  H
  H135     1.0000 0.67940  0.79440  0.07310  Biso   1.000  H
  O46      1.0000 0.68756  0.43500  0.51470  Biso   1.000  O
  H136     1.0000 0.66720  0.32590  0.55520  Biso   1.000  H
  H137     1.0000 0.70390  0.32310  0.57320  Biso   1.000  H
  H138     1.0000 0.67940  0.29440  0.57310  Biso   1.000  H
  O47      1.0000 0.18756  0.93500  0.51470  Biso   1.000  O
  H139     1.0000 0.16720  0.82590  0.55520  Biso   1.000  H
  H140     1.0000 0.20390  0.82310  0.57320  Biso   1.000  H
  H141     1.0000 0.17940  0.79440  0.57310  Biso   1.000  H
  O48      1.0000 0.18756  0.43500  0.01470  Biso   1.000  O
  H142     1.0000 0.16720  0.32590  0.05520  Biso   1.000  H
  H143     1.0000 0.20390  0.32310  0.07320  Biso   1.000  H
  H144     1.0000 0.17940  0.29440  0.07310  Biso   1.000  H
  O49      1.0000 0.31244  0.01470  0.93500  Biso   1.000  O
  H145     1.0000 0.33280  0.05520  0.82590  Biso   1.000  H
  H146     1.0000 0.29610  0.07320  0.82310  Biso   1.000  H
  H147     1.0000 0.32060  0.07310  0.79440  Biso   1.000  H
  O50      1.0000 0.31244  0.51470  0.43500  Biso   1.000  O
  H148     1.0000 0.33280  0.55520  0.32590  Biso   1.000  H
  H149     1.0000 0.29610  0.57320  0.32310  Biso   1.000  H
  H150     1.0000 0.32060  0.57310  0.29440  Biso   1.000  H
  O51      1.0000 0.81244  0.01470  0.43500  Biso   1.000  O
  H151     1.0000 0.83280  0.05520  0.32590  Biso   1.000  H
  H152     1.0000 0.79610  0.07320  0.32310  Biso   1.000  H
  H153     1.0000 0.82060  0.07310  0.29440  Biso   1.000  H
  O52      1.0000 0.81244  0.51470  0.93500  Biso   1.000  O
  H154     1.0000 0.83280  0.55520  0.82590  Biso   1.000  H
  H155     1.0000 0.79610  0.57320  0.82310  Biso   1.000  H
  H156     1.0000 0.82060  0.57310  0.79440  Biso   1.000  H
  O53      1.0000 0.68756  0.98530  0.93500  Biso   1.000  O
  H157     1.0000 0.66720  0.94480  0.82590  Biso   1.000  H
  H158     1.0000 0.70390  0.92680  0.82310  Biso   1.000  H
  H159     1.0000 0.67940  0.92690  0.79440  Biso   1.000  H
  O54      1.0000 0.68756  0.48530  0.43500  Biso   1.000  O
  H160     1.0000 0.66720  0.44480  0.32590  Biso   1.000  H
  H161     1.0000 0.70390  0.42680  0.32310  Biso   1.000  H
  H162     1.0000 0.67940  0.42690  0.29440  Biso   1.000  H
  O55      1.0000 0.18756  0.98530  0.43500  Biso   1.000  O
  H163     1.0000 0.16720  0.94480  0.32590  Biso   1.000  H
  H164     1.0000 0.20390  0.92680  0.32310  Biso   1.000  H
  H165     1.0000 0.17940  0.92690  0.29440  Biso   1.000  H
  O56      1.0000 0.18756  0.48530  0.93500  Biso   1.000  O
  H166     1.0000 0.16720  0.44480  0.82590  Biso   1.000  H
  H167     1.0000 0.20390  0.42680  0.82310  Biso   1.000  H
  H168     1.0000 0.17940  0.42690  0.79440  Biso   1.000  H
  O57      1.0000 0.31244  0.98530  0.06500  Biso   1.000  O
  H169     1.0000 0.33280  0.94480  0.17410  Biso   1.000  H
  H170     1.0000 0.29610  0.92680  0.17690  Biso   1.000  H
  H171     1.0000 0.32060  0.92690  0.20560  Biso   1.000  H
  O58      1.0000 0.31244  0.48530  0.56500  Biso   1.000  O
  H172     1.0000 0.33280  0.44480  0.67410  Biso   1.000  H
  H173     1.0000 0.29610  0.42680  0.67690  Biso   1.000  H
  H174     1.0000 0.32060  0.42690  0.70560  Biso   1.000  H
  O59      1.0000 0.81244  0.98530  0.56500  Biso   1.000  O
  H175     1.0000 0.83280  0.94480  0.67410  Biso   1.000  H
  H176     1.0000 0.79610  0.92680  0.67690  Biso   1.000  H
  H177     1.0000 0.82060  0.92690  0.70560  Biso   1.000  H
  O60      1.0000 0.81244  0.48530  0.06500  Biso   1.000  O
  H178     1.0000 0.83280  0.44480  0.17410  Biso   1.000  H
  H179     1.0000 0.79610  0.42680  0.17690  Biso   1.000  H
  H180     1.0000 0.82060  0.42690  0.20560  Biso   1.000  H
  O61      1.0000 0.68756  0.01470  0.06500  Biso   1.000  O
  H181     1.0000 0.66720  0.05520  0.17410  Biso   1.000  H
  H182     1.0000 0.70390  0.07320  0.17690  Biso   1.000  H
  H183     1.0000 0.67940  0.07310  0.20560  Biso   1.000  H
  O62      1.0000 0.68756  0.51470  0.56500  Biso   1.000  O
  H184     1.0000 0.66720  0.55520  0.67410  Biso   1.000  H
  H185     1.0000 0.70390  0.57320  0.67690  Biso   1.000  H
  H186     1.0000 0.67940  0.57310  0.70560  Biso   1.000  H
  O63      1.0000 0.18756  0.01470  0.56500  Biso   1.000  O
  H187     1.0000 0.16720  0.05520  0.67410  Biso   1.000  H
  H188     1.0000 0.20390  0.07320  0.67690  Biso   1.000  H
  H189     1.0000 0.17940  0.07310  0.70560  Biso   1.000  H
  O64      1.0000 0.18756  0.51470  0.06500  Biso   1.000  O
  H190     1.0000 0.16720  0.55520  0.17410  Biso   1.000  H
  H191     1.0000 0.20390  0.57320  0.17690  Biso   1.000  H
  H192     1.0000 0.17940  0.57310  0.20560  Biso   1.000  H
  O65      1.0000 0.01470  0.06500  0.68756  Biso   1.000  O
  H193     1.0000 0.05520  0.17410  0.66720  Biso   1.000  H
  H194     1.0000 0.07320  0.17690  0.70390  Biso   1.000  H
  H195     1.0000 0.07310  0.20560  0.67940  Biso   1.000  H
  O66      1.0000 0.01470  0.56500  0.18756  Biso   1.000  O
  H196     1.0000 0.05520  0.67410  0.16720  Biso   1.000  H
  H197     1.0000 0.07320  0.67690  0.20390  Biso   1.000  H
  H198     1.0000 0.07310  0.70560  0.17940  Biso   1.000  H
  O67      1.0000 0.51470  0.06500  0.18756  Biso   1.000  O
  H199     1.0000 0.55520  0.17410  0.16720  Biso   1.000  H
  H200     1.0000 0.57320  0.17690  0.20390  Biso   1.000  H
  H201     1.0000 0.57310  0.20560  0.17940  Biso   1.000  H
  O68      1.0000 0.51470  0.56500  0.68756  Biso   1.000  O
  H202     1.0000 0.55520  0.67410  0.66720  Biso   1.000  H
  H203     1.0000 0.57320  0.67690  0.70390  Biso   1.000  H
  H204     1.0000 0.57310  0.70560  0.67940  Biso   1.000  H
  O69      1.0000 0.98530  0.06500  0.31244  Biso   1.000  O
  H205     1.0000 0.94480  0.17410  0.33280  Biso   1.000  H
  H206     1.0000 0.92680  0.17690  0.29610  Biso   1.000  H
  H207     1.0000 0.92690  0.20560  0.32060  Biso   1.000  H
  O70      1.0000 0.98530  0.56500  0.81244  Biso   1.000  O
  H208     1.0000 0.94480  0.67410  0.83280  Biso   1.000  H
  H209     1.0000 0.92680  0.67690  0.79610  Biso   1.000  H
  H210     1.0000 0.92690  0.70560  0.82060  Biso   1.000  H
  O71      1.0000 0.48530  0.06500  0.81244  Biso   1.000  O
  H211     1.0000 0.44480  0.17410  0.83280  Biso   1.000  H
  H212     1.0000 0.42680  0.17690  0.79610  Biso   1.000  H
  H213     1.0000 0.42690  0.20560  0.82060  Biso   1.000  H
  O72      1.0000 0.48530  0.56500  0.31244  Biso   1.000  O
  H214     1.0000 0.44480  0.67410  0.33280  Biso   1.000  H
  H215     1.0000 0.42680  0.67690  0.29610  Biso   1.000  H
  H216     1.0000 0.42690  0.70560  0.32060  Biso   1.000  H
  O73      1.0000 0.98530  0.93500  0.68756  Biso   1.000  O
  H217     1.0000 0.94480  0.82590  0.66720  Biso   1.000  H
  H218     1.0000 0.92680  0.82310  0.70390  Biso   1.000  H
  H219     1.0000 0.92690  0.79440  0.67940  Biso   1.000  H
  O74      1.0000 0.98530  0.43500  0.18756  Biso   1.000  O
  H220     1.0000 0.94480  0.32590  0.16720  Biso   1.000  H
  H221     1.0000 0.92680  0.32310  0.20390  Biso   1.000  H
  H222     1.0000 0.92690  0.29440  0.17940  Biso   1.000  H
  O75      1.0000 0.48530  0.93500  0.18756  Biso   1.000  O
  H223     1.0000 0.44480  0.82590  0.16720  Biso   1.000  H
  H224     1.0000 0.42680  0.82310  0.20390  Biso   1.000  H
  H225     1.0000 0.42690  0.79440  0.17940  Biso   1.000  H
  O76      1.0000 0.48530  0.43500  0.68756  Biso   1.000  O
  H226     1.0000 0.44480  0.32590  0.66720  Biso   1.000  H
  H227     1.0000 0.42680  0.32310  0.70390  Biso   1.000  H
  H228     1.0000 0.42690  0.29440  0.67940  Biso   1.000  H
  O77      1.0000 0.01470  0.93500  0.31244  Biso   1.000  O
  H229     1.0000 0.05520  0.82590  0.33280  Biso   1.000  H
  H230     1.0000 0.07320  0.82310  0.29610  Biso   1.000  H
  H231     1.0000 0.07310  0.79440  0.32060  Biso   1.000  H
  O78      1.0000 0.01470  0.43500  0.81244  Biso   1.000  O
  H232     1.0000 0.05520  0.32590  0.83280  Biso   1.000  H
  H233     1.0000 0.07320  0.32310  0.79610  Biso   1.000  H
  H234     1.0000 0.07310  0.29440  0.82060  Biso   1.000  H
  O79      1.0000 0.51470  0.93500  0.81244  Biso   1.000  O
  H235     1.0000 0.55520  0.82590  0.83280  Biso   1.000  H
  H236     1.0000 0.57320  0.82310  0.79610  Biso   1.000  H
  H237     1.0000 0.57310  0.79440  0.82060  Biso   1.000  H
  O80      1.0000 0.51470  0.43500  0.31244  Biso   1.000  O
  H238     1.0000 0.55520  0.32590  0.33280  Biso   1.000  H
  H239     1.0000 0.57320  0.32310  0.29610  Biso   1.000  H
  H240     1.0000 0.57310  0.29440  0.32060  Biso   1.000  H
  O81      1.0000 0.06500  0.31244  0.98530  Biso   1.000  O
  H241     1.0000 0.17410  0.33280  0.94480  Biso   1.000  H
  H242     1.0000 0.17690  0.29610  0.92680  Biso   1.000  H
  H243     1.0000 0.20560  0.32060  0.92690  Biso   1.000  H
  O82      1.0000 0.06500  0.81244  0.48530  Biso   1.000  O
  H244     1.0000 0.17410  0.83280  0.44480  Biso   1.000  H
  H245     1.0000 0.17690  0.79610  0.42680  Biso   1.000  H
  H246     1.0000 0.20560  0.82060  0.42690  Biso   1.000  H
  O83      1.0000 0.56500  0.31244  0.48530  Biso   1.000  O
  H247     1.0000 0.67410  0.33280  0.44480  Biso   1.000  H
  H248     1.0000 0.67690  0.29610  0.42680  Biso   1.000  H
  H249     1.0000 0.70560  0.32060  0.42690  Biso   1.000  H
  O84      1.0000 0.56500  0.81244  0.98530  Biso   1.000  O
  H250     1.0000 0.67410  0.83280  0.94480  Biso   1.000  H
  H251     1.0000 0.67690  0.79610  0.92680  Biso   1.000  H
  H252     1.0000 0.70560  0.82060  0.92690  Biso   1.000  H
  O85      1.0000 0.06500  0.68756  0.01470  Biso   1.000  O
  H253     1.0000 0.17410  0.66720  0.05520  Biso   1.000  H
  H254     1.0000 0.17690  0.70390  0.07320  Biso   1.000  H
  H255     1.0000 0.20560  0.67940  0.07310  Biso   1.000  H
  O86      1.0000 0.06500  0.18756  0.51470  Biso   1.000  O
  H256     1.0000 0.17410  0.16720  0.55520  Biso   1.000  H
  H257     1.0000 0.17690  0.20390  0.57320  Biso   1.000  H
  H258     1.0000 0.20560  0.17940  0.57310  Biso   1.000  H
  O87      1.0000 0.56500  0.68756  0.51470  Biso   1.000  O
  H259     1.0000 0.67410  0.66720  0.55520  Biso   1.000  H
  H260     1.0000 0.67690  0.70390  0.57320  Biso   1.000  H
  H261     1.0000 0.70560  0.67940  0.57310  Biso   1.000  H
  O88      1.0000 0.56500  0.18756  0.01470  Biso   1.000  O
  H262     1.0000 0.67410  0.16720  0.05520  Biso   1.000  H
  H263     1.0000 0.67690  0.20390  0.07320  Biso   1.000  H
  H264     1.0000 0.70560  0.17940  0.07310  Biso   1.000  H
  O89      1.0000 0.93500  0.31244  0.01470  Biso   1.000  O
  H265     1.0000 0.82590  0.33280  0.05520  Biso   1.000  H
  H266     1.0000 0.82310  0.29610  0.07320  Biso   1.000  H
  H267     1.0000 0.79440  0.32060  0.07310  Biso   1.000  H
  O90      1.0000 0.93500  0.81244  0.51470  Biso   1.000  O
  H268     1.0000 0.82590  0.83280  0.55520  Biso   1.000  H
  H269     1.0000 0.82310  0.79610  0.57320  Biso   1.000  H
  H270     1.0000 0.79440  0.82060  0.57310  Biso   1.000  H
  O91      1.0000 0.43500  0.31244  0.51470  Biso   1.000  O
  H271     1.0000 0.32590  0.33280  0.55520  Biso   1.000  H
  H272     1.0000 0.32310  0.29610  0.57320  Biso   1.000  H
  H273     1.0000 0.29440  0.32060  0.57310  Biso   1.000  H
  O92      1.0000 0.43500  0.81244  0.01470  Biso   1.000  O
  H274     1.0000 0.32590  0.83280  0.05520  Biso   1.000  H
  H275     1.0000 0.32310  0.79610  0.07320  Biso   1.000  H
  H276     1.0000 0.29440  0.82060  0.07310  Biso   1.000  H
  O93      1.0000 0.93500  0.68756  0.98530  Biso   1.000  O
  H277     1.0000 0.82590  0.66720  0.94480  Biso   1.000  H
  H278     1.0000 0.82310  0.70390  0.92680  Biso   1.000  H
  H279     1.0000 0.79440  0.67940  0.92690  Biso   1.000  H
  O94      1.0000 0.93500  0.18756  0.48530  Biso   1.000  O
  H280     1.0000 0.82590  0.16720  0.44480  Biso   1.000  H
  H281     1.0000 0.82310  0.20390  0.42680  Biso   1.000  H
  H282     1.0000 0.79440  0.17940  0.42690  Biso   1.000  H
  O95      1.0000 0.43500  0.68756  0.48530  Biso   1.000  O
  H283     1.0000 0.32590  0.66720  0.44480  Biso   1.000  H
  H284     1.0000 0.32310  0.70390  0.42680  Biso   1.000  H
  H285     1.0000 0.29440  0.67940  0.42690  Biso   1.000  H
  O96      1.0000 0.43500  0.18756  0.98530  Biso   1.000  O
  H286     1.0000 0.32590  0.16720  0.94480  Biso   1.000  H
  H287     1.0000 0.32310  0.20390  0.92680  Biso   1.000  H
  H288     1.0000 0.29440  0.17940  0.92690  Biso   1.000  H
  O97      1.0000 0.98530  0.68756  0.93500  Biso   1.000  O
  H289     1.0000 0.94480  0.66720  0.82590  Biso   1.000  H
  H290     1.0000 0.92680  0.70390  0.82310  Biso   1.000  H
  H291     1.0000 0.92690  0.67940  0.79440  Biso   1.000  H
  O98      1.0000 0.98530  0.18756  0.43500  Biso   1.000  O
  H292     1.0000 0.94480  0.16720  0.32590  Biso   1.000  H
  H293     1.0000 0.92680  0.20390  0.32310  Biso   1.000  H
  H294     1.0000 0.92690  0.17940  0.29440  Biso   1.000  H
  O99      1.0000 0.48530  0.68756  0.43500  Biso   1.000  O
  H295     1.0000 0.44480  0.66720  0.32590  Biso   1.000  H
  H296     1.0000 0.42680  0.70390  0.32310  Biso   1.000  H
  H297     1.0000 0.42690  0.67940  0.29440  Biso   1.000  H
  O100     1.0000 0.48530  0.18756  0.93500  Biso   1.000  O
  H298     1.0000 0.44480  0.16720  0.82590  Biso   1.000  H
  H299     1.0000 0.42680  0.20390  0.82310  Biso   1.000  H
  H300     1.0000 0.42690  0.17940  0.79440  Biso   1.000  H
  O101     1.0000 0.01470  0.31244  0.93500  Biso   1.000  O
  H301     1.0000 0.05520  0.33280  0.82590  Biso   1.000  H
  H302     1.0000 0.07320  0.29610  0.82310  Biso   1.000  H
  H303     1.0000 0.07310  0.32060  0.79440  Biso   1.000  H
  O102     1.0000 0.01470  0.81244  0.43500  Biso   1.000  O
  H304     1.0000 0.05520  0.83280  0.32590  Biso   1.000  H
  H305     1.0000 0.07320  0.79610  0.32310  Biso   1.000  H
  H306     1.0000 0.07310  0.82060  0.29440  Biso   1.000  H
  O103     1.0000 0.51470  0.31244  0.43500  Biso   1.000  O
  H307     1.0000 0.55520  0.33280  0.32590  Biso   1.000  H
  H308     1.0000 0.57320  0.29610  0.32310  Biso   1.000  H
  H309     1.0000 0.57310  0.32060  0.29440  Biso   1.000  H
  O104     1.0000 0.51470  0.81244  0.93500  Biso   1.000  O
  H310     1.0000 0.55520  0.83280  0.82590  Biso   1.000  H
  H311     1.0000 0.57320  0.79610  0.82310  Biso   1.000  H
  H312     1.0000 0.57310  0.82060  0.79440  Biso   1.000  H
  O105     1.0000 0.01470  0.68756  0.06500  Biso   1.000  O
  H313     1.0000 0.05520  0.66720  0.17410  Biso   1.000  H
  H314     1.0000 0.07320  0.70390  0.17690  Biso   1.000  H
  H315     1.0000 0.07310  0.67940  0.20560  Biso   1.000  H
  O106     1.0000 0.01470  0.18756  0.56500  Biso   1.000  O
  H316     1.0000 0.05520  0.16720  0.67410  Biso   1.000  H
  H317     1.0000 0.07320  0.20390  0.67690  Biso   1.000  H
  H318     1.0000 0.07310  0.17940  0.70560  Biso   1.000  H
  O107     1.0000 0.51470  0.68756  0.56500  Biso   1.000  O
  H319     1.0000 0.55520  0.66720  0.67410  Biso   1.000  H
  H320     1.0000 0.57320  0.70390  0.67690  Biso   1.000  H
  H321     1.0000 0.57310  0.67940  0.70560  Biso   1.000  H
  O108     1.0000 0.51470  0.18756  0.06500  Biso   1.000  O
  H322     1.0000 0.55520  0.16720  0.17410  Biso   1.000  H
  H323     1.0000 0.57320  0.20390  0.17690  Biso   1.000  H
  H324     1.0000 0.57310  0.17940  0.20560  Biso   1.000  H
  O109     1.0000 0.98530  0.31244  0.06500  Biso   1.000  O
  H325     1.0000 0.94480  0.33280  0.17410  Biso   1.000  H
  H326     1.0000 0.92680  0.29610  0.17690  Biso   1.000  H
  H327     1.0000 0.92690  0.32060  0.20560  Biso   1.000  H
  O110     1.0000 0.98530  0.81244  0.56500  Biso   1.000  O
  H328     1.0000 0.94480  0.83280  0.67410  Biso   1.000  H
  H329     1.0000 0.92680  0.79610  0.67690  Biso   1.000  H
  H330     1.0000 0.92690  0.82060  0.70560  Biso   1.000  H
  O111     1.0000 0.48530  0.31244  0.56500  Biso   1.000  O
  H331     1.0000 0.44480  0.33280  0.67410  Biso   1.000  H
  H332     1.0000 0.42680  0.29610  0.67690  Biso   1.000  H
  H333     1.0000 0.42690  0.32060  0.70560  Biso   1.000  H
  O112     1.0000 0.48530  0.81244  0.06500  Biso   1.000  O
  H334     1.0000 0.44480  0.83280  0.17410  Biso   1.000  H
  H335     1.0000 0.42680  0.79610  0.17690  Biso   1.000  H
  H336     1.0000 0.42690  0.82060  0.20560  Biso   1.000  H
  O113     1.0000 0.93500  0.98530  0.68756  Biso   1.000  O
  H337     1.0000 0.82590  0.94480  0.66720  Biso   1.000  H
  H338     1.0000 0.82310  0.92680  0.70390  Biso   1.000  H
  H339     1.0000 0.79440  0.92690  0.67940  Biso   1.000  H
  O114     1.0000 0.93500  0.48530  0.18756  Biso   1.000  O
  H340     1.0000 0.82590  0.44480  0.16720  Biso   1.000  H
  H341     1.0000 0.82310  0.42680  0.20390  Biso   1.000  H
  H342     1.0000 0.79440  0.42690  0.17940  Biso   1.000  H
  O115     1.0000 0.43500  0.98530  0.18756  Biso   1.000  O
  H343     1.0000 0.32590  0.94480  0.16720  Biso   1.000  H
  H344     1.0000 0.32310  0.92680  0.20390  Biso   1.000  H
  H345     1.0000 0.29440  0.92690  0.17940  Biso   1.000  H
  O116     1.0000 0.43500  0.48530  0.68756  Biso   1.000  O
  H346     1.0000 0.32590  0.44480  0.66720  Biso   1.000  H
  H347     1.0000 0.32310  0.42680  0.70390  Biso   1.000  H
  H348     1.0000 0.29440  0.42690  0.67940  Biso   1.000  H
  O117     1.0000 0.93500  0.01470  0.31244  Biso   1.000  O
  H349     1.0000 0.82590  0.05520  0.33280  Biso   1.000  H
  H350     1.0000 0.82310  0.07320  0.29610  Biso   1.000  H
  H351     1.0000 0.79440  0.07310  0.32060  Biso   1.000  H
  O118     1.0000 0.93500  0.51470  0.81244  Biso   1.000  O
  H352     1.0000 0.82590  0.55520  0.83280  Biso   1.000  H
  H353     1.0000 0.82310  0.57320  0.79610  Biso   1.000  H
  H354     1.0000 0.79440  0.57310  0.82060  Biso   1.000  H
  O119     1.0000 0.43500  0.01470  0.81244  Biso   1.000  O
  H355     1.0000 0.32590  0.05520  0.83280  Biso   1.000  H
  H356     1.0000 0.32310  0.07320  0.79610  Biso   1.000  H
  H357     1.0000 0.29440  0.07310  0.82060  Biso   1.000  H
  O120     1.0000 0.43500  0.51470  0.31244  Biso   1.000  O
  H358     1.0000 0.32590  0.55520  0.33280  Biso   1.000  H
  H359     1.0000 0.32310  0.57320  0.29610  Biso   1.000  H
  H360     1.0000 0.29440  0.57310  0.32060  Biso   1.000  H
  O121     1.0000 0.06500  0.01470  0.68756  Biso   1.000  O
  H361     1.0000 0.17410  0.05520  0.66720  Biso   1.000  H
  H362     1.0000 0.17690  0.07320  0.70390  Biso   1.000  H
  H363     1.0000 0.20560  0.07310  0.67940  Biso   1.000  H
  O122     1.0000 0.06500  0.51470  0.18756  Biso   1.000  O
  H364     1.0000 0.17410  0.55520  0.16720  Biso   1.000  H
  H365     1.0000 0.17690  0.57320  0.20390  Biso   1.000  H
  H366     1.0000 0.20560  0.57310  0.17940  Biso   1.000  H
  O123     1.0000 0.56500  0.01470  0.18756  Biso   1.000  O
  H367     1.0000 0.67410  0.05520  0.16720  Biso   1.000  H
  H368     1.0000 0.67690  0.07320  0.20390  Biso   1.000  H
  H369     1.0000 0.70560  0.07310  0.17940  Biso   1.000  H
  O124     1.0000 0.56500  0.51470  0.68756  Biso   1.000  O
  H370     1.0000 0.67410  0.55520  0.66720  Biso   1.000  H
  H371     1.0000 0.67690  0.57320  0.70390  Biso   1.000  H
  H372     1.0000 0.70560  0.57310  0.67940  Biso   1.000  H
  O125     1.0000 0.06500  0.98530  0.31244  Biso   1.000  O
  H373     1.0000 0.17410  0.94480  0.33280  Biso   1.000  H
  H374     1.0000 0.17690  0.92680  0.29610  Biso   1.000  H
  H375     1.0000 0.20560  0.92690  0.32060  Biso   1.000  H
  O126     1.0000 0.06500  0.48530  0.81244  Biso   1.000  O
  H376     1.0000 0.17410  0.44480  0.83280  Biso   1.000  H
  H377     1.0000 0.17690  0.42680  0.79610  Biso   1.000  H
  H378     1.0000 0.20560  0.42690  0.82060  Biso   1.000  H
  O127     1.0000 0.56500  0.98530  0.81244  Biso   1.000  O
  H379     1.0000 0.67410  0.94480  0.83280  Biso   1.000  H
  H380     1.0000 0.67690  0.92680  0.79610  Biso   1.000  H
  H381     1.0000 0.70560  0.92690  0.82060  Biso   1.000  H
  O128     1.0000 0.56500  0.48530  0.31244  Biso   1.000  O
  H382     1.0000 0.67410  0.44480  0.33280  Biso   1.000  H
  H383     1.0000 0.67690  0.42680  0.29610  Biso   1.000  H
  H384     1.0000 0.70560  0.42690  0.32060  Biso   1.000  H
  O129     1.0000 0.68756  0.93500  0.98530  Biso   1.000  O
  H385     1.0000 0.66720  0.82590  0.94480  Biso   1.000  H
  H386     1.0000 0.70390  0.82310  0.92680  Biso   1.000  H
  H387     1.0000 0.67940  0.79440  0.92690  Biso   1.000  H
  O130     1.0000 0.68756  0.43500  0.48530  Biso   1.000  O
  H388     1.0000 0.66720  0.32590  0.44480  Biso   1.000  H
  H389     1.0000 0.70390  0.32310  0.42680  Biso   1.000  H
  H390     1.0000 0.67940  0.29440  0.42690  Biso   1.000  H
  O131     1.0000 0.18756  0.93500  0.48530  Biso   1.000  O
  H391     1.0000 0.16720  0.82590  0.44480  Biso   1.000  H
  H392     1.0000 0.20390  0.82310  0.42680  Biso   1.000  H
  H393     1.0000 0.17940  0.79440  0.42690  Biso   1.000  H
  O132     1.0000 0.18756  0.43500  0.98530  Biso   1.000  O
  H394     1.0000 0.16720  0.32590  0.94480  Biso   1.000  H
  H395     1.0000 0.20390  0.32310  0.92680  Biso   1.000  H
  H396     1.0000 0.17940  0.29440  0.92690  Biso   1.000  H
  O133     1.0000 0.31244  0.93500  0.01470  Biso   1.000  O
  H397     1.0000 0.33280  0.82590  0.05520  Biso   1.000  H
  H398     1.0000 0.29610  0.82310  0.07320  Biso   1.000  H
  H399     1.0000 0.32060  0.79440  0.07310  Biso   1.000  H
  O134     1.0000 0.31244  0.43500  0.51470  Biso   1.000  O
  H400     1.0000 0.33280  0.32590  0.55520  Biso   1.000  H
  H401     1.0000 0.29610  0.32310  0.57320  Biso   1.000  H
  H402     1.0000 0.32060  0.29440  0.57310  Biso   1.000  H
  O135     1.0000 0.81244  0.93500  0.51470  Biso   1.000  O
  H403     1.0000 0.83280  0.82590  0.55520  Biso   1.000  H
  H404     1.0000 0.79610  0.82310  0.57320  Biso   1.000  H
  H405     1.0000 0.82060  0.79440  0.57310  Biso   1.000  H
  O136     1.0000 0.81244  0.43500  0.01470  Biso   1.000  O
  H406     1.0000 0.83280  0.32590  0.05520  Biso   1.000  H
  H407     1.0000 0.79610  0.32310  0.07320  Biso   1.000  H
  H408     1.0000 0.82060  0.29440  0.07310  Biso   1.000  H
  O137     1.0000 0.68756  0.06500  0.01470  Biso   1.000  O
  H409     1.0000 0.66720  0.17410  0.05520  Biso   1.000  H
  H410     1.0000 0.70390  0.17690  0.07320  Biso   1.000  H
  H411     1.0000 0.67940  0.20560  0.07310  Biso   1.000  H
  O138     1.0000 0.68756  0.56500  0.51470  Biso   1.000  O
  H412     1.0000 0.66720  0.67410  0.55520  Biso   1.000  H
  H413     1.0000 0.70390  0.67690  0.57320  Biso   1.000  H
  H414     1.0000 0.67940  0.70560  0.57310  Biso   1.000  H
  O139     1.0000 0.18756  0.06500  0.51470  Biso   1.000  O
  H415     1.0000 0.16720  0.17410  0.55520  Biso   1.000  H
  H416     1.0000 0.20390  0.17690  0.57320  Biso   1.000  H
  H417     1.0000 0.17940  0.20560  0.57310  Biso   1.000  H
  O140     1.0000 0.18756  0.56500  0.01470  Biso   1.000  O
  H418     1.0000 0.16720  0.67410  0.05520  Biso   1.000  H
  H419     1.0000 0.20390  0.67690  0.07320  Biso   1.000  H
  H420     1.0000 0.17940  0.70560  0.07310  Biso   1.000  H
  O141     1.0000 0.31244  0.06500  0.98530  Biso   1.000  O
  H421     1.0000 0.33280  0.17410  0.94480  Biso   1.000  H
  H422     1.0000 0.29610  0.17690  0.92680  Biso   1.000  H
  H423     1.0000 0.32060  0.20560  0.92690  Biso   1.000  H
  O142     1.0000 0.31244  0.56500  0.48530  Biso   1.000  O
  H424     1.0000 0.33280  0.67410  0.44480  Biso   1.000  H
  H425     1.0000 0.29610  0.67690  0.42680  Biso   1.000  H
  H426     1.0000 0.32060  0.70560  0.42690  Biso   1.000  H
  O143     1.0000 0.81244  0.06500  0.48530  Biso   1.000  O
  H427     1.0000 0.83280  0.17410  0.44480  Biso   1.000  H
  H428     1.0000 0.79610  0.17690  0.42680  Biso   1.000  H
  H429     1.0000 0.82060  0.20560  0.42690  Biso   1.000  H
  O144     1.0000 0.81244  0.56500  0.98530  Biso   1.000  O
  H430     1.0000 0.83280  0.67410  0.94480  Biso   1.000  H
  H431     1.0000 0.79610  0.67690  0.92680  Biso   1.000  H
  H432     1.0000 0.82060  0.70560  0.92690  Biso   1.000  H
  O145     1.0000 0.68756  0.98530  0.06500  Biso   1.000  O
  H433     1.0000 0.66720  0.94480  0.17410  Biso   1.000  H
  H434     1.0000 0.70390  0.92680  0.17690  Biso   1.000  H
  H435     1.0000 0.67940  0.92690  0.20560  Biso   1.000  H
  O146     1.0000 0.68756  0.48530  0.56500  Biso   1.000  O
  H436     1.0000 0.66720  0.44480  0.67410  Biso   1.000  H
  H437     1.0000 0.70390  0.42680  0.67690  Biso   1.000  H
  H438     1.0000 0.67940  0.42690  0.70560  Biso   1.000  H
  O147     1.0000 0.18756  0.98530  0.56500  Biso   1.000  O
  H439     1.0000 0.16720  0.94480  0.67410  Biso   1.000  H
  H440     1.0000 0.20390  0.92680  0.67690  Biso   1.000  H
  H441     1.0000 0.17940  0.92690  0.70560  Biso   1.000  H
  O148     1.0000 0.18756  0.48530  0.06500  Biso   1.000  O
  H442     1.0000 0.16720  0.44480  0.17410  Biso   1.000  H
  H443     1.0000 0.20390  0.42680  0.17690  Biso   1.000  H
  H444     1.0000 0.17940  0.42690  0.20560  Biso   1.000  H
  O149     1.0000 0.31244  0.01470  0.06500  Biso   1.000  O
  H445     1.0000 0.33280  0.05520  0.17410  Biso   1.000  H
  H446     1.0000 0.29610  0.07320  0.17690  Biso   1.000  H
  H447     1.0000 0.32060  0.07310  0.20560  Biso   1.000  H
  O150     1.0000 0.31244  0.51470  0.56500  Biso   1.000  O
  H448     1.0000 0.33280  0.55520  0.67410  Biso   1.000  H
  H449     1.0000 0.29610  0.57320  0.67690  Biso   1.000  H
  H450     1.0000 0.32060  0.57310  0.70560  Biso   1.000  H
  O151     1.0000 0.81244  0.01470  0.56500  Biso   1.000  O
  H451     1.0000 0.83280  0.05520  0.67410  Biso   1.000  H
  H452     1.0000 0.79610  0.07320  0.67690  Biso   1.000  H
  H453     1.0000 0.82060  0.07310  0.70560  Biso   1.000  H
  O152     1.0000 0.81244  0.51470  0.06500  Biso   1.000  O
  H454     1.0000 0.83280  0.55520  0.17410  Biso   1.000  H
  H455     1.0000 0.79610  0.57320  0.17690  Biso   1.000  H
  H456     1.0000 0.82060  0.57310  0.20560  Biso   1.000  H
  O153     1.0000 0.68756  0.01470  0.93500  Biso   1.000  O
  H457     1.0000 0.66720  0.05520  0.82590  Biso   1.000  H
  H458     1.0000 0.70390  0.07320  0.82310  Biso   1.000  H
  H459     1.0000 0.67940  0.07310  0.79440  Biso   1.000  H
  O154     1.0000 0.68756  0.51470  0.43500  Biso   1.000  O
  H460     1.0000 0.66720  0.55520  0.32590  Biso   1.000  H
  H461     1.0000 0.70390  0.57320  0.32310  Biso   1.000  H
  H462     1.0000 0.67940  0.57310  0.29440  Biso   1.000  H
  O155     1.0000 0.18756  0.01470  0.43500  Biso   1.000  O
  H463     1.0000 0.16720  0.05520  0.32590  Biso   1.000  H
  H464     1.0000 0.20390  0.07320  0.32310  Biso   1.000  H
  H465     1.0000 0.17940  0.07310  0.29440  Biso   1.000  H
  O156     1.0000 0.18756  0.51470  0.93500  Biso   1.000  O
  H466     1.0000 0.16720  0.55520  0.82590  Biso   1.000  H
  H467     1.0000 0.20390  0.57320  0.82310  Biso   1.000  H
  H468     1.0000 0.17940  0.57310  0.79440  Biso   1.000  H
  O157     1.0000 0.31244  0.98530  0.93500  Biso   1.000  O
  H469     1.0000 0.33280  0.94480  0.82590  Biso   1.000  H
  H470     1.0000 0.29610  0.92680  0.82310  Biso   1.000  H
  H471     1.0000 0.32060  0.92690  0.79440  Biso   1.000  H
  O158     1.0000 0.31244  0.48530  0.43500  Biso   1.000  O
  H472     1.0000 0.33280  0.44480  0.32590  Biso   1.000  H
  H473     1.0000 0.29610  0.42680  0.32310  Biso   1.000  H
  H474     1.0000 0.32060  0.42690  0.29440  Biso   1.000  H
  O159     1.0000 0.81244  0.98530  0.43500  Biso   1.000  O
  H475     1.0000 0.83280  0.94480  0.32590  Biso   1.000  H
  H476     1.0000 0.79610  0.92680  0.32310  Biso   1.000  H
  H477     1.0000 0.82060  0.92690  0.29440  Biso   1.000  H
  O160     1.0000 0.81244  0.48530  0.93500  Biso   1.000  O
  H478     1.0000 0.83280  0.44480  0.82590  Biso   1.000  H
  H479     1.0000 0.79610  0.42680  0.82310  Biso   1.000  H
  H480     1.0000 0.82060  0.42690  0.79440  Biso   1.000  H
  O161     1.0000 0.98530  0.93500  0.31244  Biso   1.000  O
  H481     1.0000 0.94480  0.82590  0.33280  Biso   1.000  H
  H482     1.0000 0.92680  0.82310  0.29610  Biso   1.000  H
  H483     1.0000 0.92690  0.79440  0.32060  Biso   1.000  H
  O162     1.0000 0.98530  0.43500  0.81244  Biso   1.000  O
  H484     1.0000 0.94480  0.32590  0.83280  Biso   1.000  H
  H485     1.0000 0.92680  0.32310  0.79610  Biso   1.000  H
  H486     1.0000 0.92690  0.29440  0.82060  Biso   1.000  H
  O163     1.0000 0.48530  0.93500  0.81244  Biso   1.000  O
  H487     1.0000 0.44480  0.82590  0.83280  Biso   1.000  H
  H488     1.0000 0.42680  0.82310  0.79610  Biso   1.000  H
  H489     1.0000 0.42690  0.79440  0.82060  Biso   1.000  H
  O164     1.0000 0.48530  0.43500  0.31244  Biso   1.000  O
  H490     1.0000 0.44480  0.32590  0.33280  Biso   1.000  H
  H491     1.0000 0.42680  0.32310  0.29610  Biso   1.000  H
  H492     1.0000 0.42690  0.29440  0.32060  Biso   1.000  H
  O165     1.0000 0.01470  0.93500  0.68756  Biso   1.000  O
  H493     1.0000 0.05520  0.82590  0.66720  Biso   1.000  H
  H494     1.0000 0.07320  0.82310  0.70390  Biso   1.000  H
  H495     1.0000 0.07310  0.79440  0.67940  Biso   1.000  H
  O166     1.0000 0.01470  0.43500  0.18756  Biso   1.000  O
  H496     1.0000 0.05520  0.32590  0.16720  Biso   1.000  H
  H497     1.0000 0.07320  0.32310  0.20390  Biso   1.000  H
  H498     1.0000 0.07310  0.29440  0.17940  Biso   1.000  H
  O167     1.0000 0.51470  0.93500  0.18756  Biso   1.000  O
  H499     1.0000 0.55520  0.82590  0.16720  Biso   1.000  H
  H500     1.0000 0.57320  0.82310  0.20390  Biso   1.000  H
  H501     1.0000 0.57310  0.79440  0.17940  Biso   1.000  H
  O168     1.0000 0.51470  0.43500  0.68756  Biso   1.000  O
  H502     1.0000 0.55520  0.32590  0.66720  Biso   1.000  H
  H503     1.0000 0.57320  0.32310  0.70390  Biso   1.000  H
  H504     1.0000 0.57310  0.29440  0.67940  Biso   1.000  H
  O169     1.0000 0.01470  0.06500  0.31244  Biso   1.000  O
  H505     1.0000 0.05520  0.17410  0.33280  Biso   1.000  H
  H506     1.0000 0.07320  0.17690  0.29610  Biso   1.000  H
  H507     1.0000 0.07310  0.20560  0.32060  Biso   1.000  H
  O170     1.0000 0.01470  0.56500  0.81244  Biso   1.000  O
  H508     1.0000 0.05520  0.67410  0.83280  Biso   1.000  H
  H509     1.0000 0.07320  0.67690  0.79610  Biso   1.000  H
  H510     1.0000 0.07310  0.70560  0.82060  Biso   1.000  H
  O171     1.0000 0.51470  0.06500  0.81244  Biso   1.000  O
  H511     1.0000 0.55520  0.17410  0.83280  Biso   1.000  H
  H512     1.0000 0.57320  0.17690  0.79610  Biso   1.000  H
  H513     1.0000 0.57310  0.20560  0.82060  Biso   1.000  H
  O172     1.0000 0.51470  0.56500  0.31244  Biso   1.000  O
  H514     1.0000 0.55520  0.67410  0.33280  Biso   1.000  H
  H515     1.0000 0.57320  0.67690  0.29610  Biso   1.000  H
  H516     1.0000 0.57310  0.70560  0.32060  Biso   1.000  H
  O173     1.0000 0.98530  0.06500  0.68756  Biso   1.000  O
  H517     1.0000 0.94480  0.17410  0.66720  Biso   1.000  H
  H518     1.0000 0.92680  0.17690  0.70390  Biso   1.000  H
  H519     1.0000 0.92690  0.20560  0.67940  Biso   1.000  H
  O174     1.0000 0.98530  0.56500  0.18756  Biso   1.000  O
  H520     1.0000 0.94480  0.67410  0.16720  Biso   1.000  H
  H521     1.0000 0.92680  0.67690  0.20390  Biso   1.000  H
  H522     1.0000 0.92690  0.70560  0.17940  Biso   1.000  H
  O175     1.0000 0.48530  0.06500  0.18756  Biso   1.000  O
  H523     1.0000 0.44480  0.17410  0.16720  Biso   1.000  H
  H524     1.0000 0.42680  0.17690  0.20390  Biso   1.000  H
  H525     1.0000 0.42690  0.20560  0.17940  Biso   1.000  H
  O176     1.0000 0.48530  0.56500  0.68756  Biso   1.000  O
  H526     1.0000 0.44480  0.67410  0.66720  Biso   1.000  H
  H527     1.0000 0.42680  0.67690  0.70390  Biso   1.000  H
  H528     1.0000 0.42690  0.70560  0.67940  Biso   1.000  H
  O177     1.0000 0.93500  0.68756  0.01470  Biso   1.000  O
  H529     1.0000 0.82590  0.66720  0.05520  Biso   1.000  H
  H530     1.0000 0.82310  0.70390  0.07320  Biso   1.000  H
  H531     1.0000 0.79440  0.67940  0.07310  Biso   1.000  H
  O178     1.0000 0.93500  0.18756  0.51470  Biso   1.000  O
  H532     1.0000 0.82590  0.16720  0.55520  Biso   1.000  H
  H533     1.0000 0.82310  0.20390  0.57320  Biso   1.000  H
  H534     1.0000 0.79440  0.17940  0.57310  Biso   1.000  H
  O179     1.0000 0.43500  0.68756  0.51470  Biso   1.000  O
  H535     1.0000 0.32590  0.66720  0.55520  Biso   1.000  H
  H536     1.0000 0.32310  0.70390  0.57320  Biso   1.000  H
  H537     1.0000 0.29440  0.67940  0.57310  Biso   1.000  H
  O180     1.0000 0.43500  0.18756  0.01470  Biso   1.000  O
  H538     1.0000 0.32590  0.16720  0.05520  Biso   1.000  H
  H539     1.0000 0.32310  0.20390  0.07320  Biso   1.000  H
  H540     1.0000 0.29440  0.17940  0.07310  Biso   1.000  H
  O181     1.0000 0.93500  0.31244  0.98530  Biso   1.000  O
  H541     1.0000 0.82590  0.33280  0.94480  Biso   1.000  H
  H542     1.0000 0.82310  0.29610  0.92680  Biso   1.000  H
  H543     1.0000 0.79440  0.32060  0.92690  Biso   1.000  H
  O182     1.0000 0.93500  0.81244  0.48530  Biso   1.000  O
  H544     1.0000 0.82590  0.83280  0.44480  Biso   1.000  H
  H545     1.0000 0.82310  0.79610  0.42680  Biso   1.000  H
  H546     1.0000 0.79440  0.82060  0.42690  Biso   1.000  H
  O183     1.0000 0.43500  0.31244  0.48530  Biso   1.000  O
  H547     1.0000 0.32590  0.33280  0.44480  Biso   1.000  H
  H548     1.0000 0.32310  0.29610  0.42680  Biso   1.000  H
  H549     1.0000 0.29440  0.32060  0.42690  Biso   1.000  H
  O184     1.0000 0.43500  0.81244  0.98530  Biso   1.000  O
  H550     1.0000 0.32590  0.83280  0.94480  Biso   1.000  H
  H551     1.0000 0.32310  0.79610  0.92680  Biso   1.000  H
  H552     1.0000 0.29440  0.82060  0.92690  Biso   1.000  H
  O185     1.0000 0.06500  0.68756  0.98530  Biso   1.000  O
  H553     1.0000 0.17410  0.66720  0.94480  Biso   1.000  H
  H554     1.0000 0.17690  0.70390  0.92680  Biso   1.000  H
  H555     1.0000 0.20560  0.67940  0.92690  Biso   1.000  H
  O186     1.0000 0.06500  0.18756  0.48530  Biso   1.000  O
  H556     1.0000 0.17410  0.16720  0.44480  Biso   1.000  H
  H557     1.0000 0.17690  0.20390  0.42680  Biso   1.000  H
  H558     1.0000 0.20560  0.17940  0.42690  Biso   1.000  H
  O187     1.0000 0.56500  0.68756  0.48530  Biso   1.000  O
  H559     1.0000 0.67410  0.66720  0.44480  Biso   1.000  H
  H560     1.0000 0.67690  0.70390  0.42680  Biso   1.000  H
  H561     1.0000 0.70560  0.67940  0.42690  Biso   1.000  H
  O188     1.0000 0.56500  0.18756  0.98530  Biso   1.000  O
  H562     1.0000 0.67410  0.16720  0.94480  Biso   1.000  H
  H563     1.0000 0.67690  0.20390  0.92680  Biso   1.000  H
  H564     1.0000 0.70560  0.17940  0.92690  Biso   1.000  H
  O189     1.0000 0.06500  0.31244  0.01470  Biso   1.000  O
  H565     1.0000 0.17410  0.33280  0.05520  Biso   1.000  H
  H566     1.0000 0.17690  0.29610  0.07320  Biso   1.000  H
  H567     1.0000 0.20560  0.32060  0.07310  Biso   1.000  H
  O190     1.0000 0.06500  0.81244  0.51470  Biso   1.000  O
  H568     1.0000 0.17410  0.83280  0.55520  Biso   1.000  H
  H569     1.0000 0.17690  0.79610  0.57320  Biso   1.000  H
  H570     1.0000 0.20560  0.82060  0.57310  Biso   1.000  H
  O191     1.0000 0.56500  0.31244  0.51470  Biso   1.000  O
  H571     1.0000 0.67410  0.33280  0.55520  Biso   1.000  H
  H572     1.0000 0.67690  0.29610  0.57320  Biso   1.000  H
  H573     1.0000 0.70560  0.32060  0.57310  Biso   1.000  H
  O192     1.0000 0.56500  0.81244  0.01470  Biso   1.000  O
  H574     1.0000 0.67410  0.83280  0.05520  Biso   1.000  H
  H575     1.0000 0.67690  0.79610  0.07320  Biso   1.000  H
  H576     1.0000 0.70560  0.82060  0.07310  Biso   1.000  H
  Fe1      1.0000 0.00000  0.35990  0.00000  Biso   1.000  Fe
  O193     1.0000 0.00000  0.31220  0.00000  Biso   1.000  O
  Fe2      1.0000 0.00000  0.85990  0.50000  Biso   1.000  Fe
  O194     1.0000 0.00000  0.81220  0.50000  Biso   1.000  O
  Fe3      1.0000 0.50000  0.35990  0.50000  Biso   1.000  Fe
  O195     1.0000 0.50000  0.31220  0.50000  Biso   1.000  O
  Fe4      1.0000 0.50000  0.85990  0.00000  Biso   1.000  Fe
  O196     1.0000 0.50000  0.81220  0.00000  Biso   1.000  O
  Fe5      1.0000 0.00000  0.64010  0.00000  Biso   1.000  Fe
  O197     1.0000 0.00000  0.68780  0.00000  Biso   1.000  O
  Fe6      1.0000 0.00000  0.14010  0.50000  Biso   1.000  Fe
  O198     1.0000 0.00000  0.18780  0.50000  Biso   1.000  O
  Fe7      1.0000 0.50000  0.64010  0.50000  Biso   1.000  Fe
  O199     1.0000 0.50000  0.68780  0.50000  Biso   1.000  O
  Fe8      1.0000 0.50000  0.14010  0.00000  Biso   1.000  Fe
  O200     1.0000 0.50000  0.18780  0.00000  Biso   1.000  O
  Fe9      1.0000 0.00000  0.00000  0.35990  Biso   1.000  Fe
  O201     1.0000 0.00000  0.00000  0.31220  Biso   1.000  O
  Fe10     1.0000 0.00000  0.50000  0.85990  Biso   1.000  Fe
  O202     1.0000 0.00000  0.50000  0.81220  Biso   1.000  O
  Fe11     1.0000 0.50000  0.00000  0.85990  Biso   1.000  Fe
  O203     1.0000 0.50000  0.00000  0.81220  Biso   1.000  O
  Fe12     1.0000 0.50000  0.50000  0.35990  Biso   1.000  Fe
  O204     1.0000 0.50000  0.50000  0.31220  Biso   1.000  O
  Fe13     1.0000 0.00000  0.00000  0.64010  Biso   1.000  Fe
  O205     1.0000 0.00000  0.00000  0.68780  Biso   1.000  O
  Fe14     1.0000 0.00000  0.50000  0.14010  Biso   1.000  Fe
  O206     1.0000 0.00000  0.50000  0.18780  Biso   1.000  O
  Fe15     1.0000 0.50000  0.00000  0.14010  Biso   1.000  Fe
  O207     1.0000 0.50000  0.00000  0.18780  Biso   1.000  O
  Fe16     1.0000 0.50000  0.50000  0.64010  Biso   1.000  Fe
  O208     1.0000 0.50000  0.50000  0.68780  Biso   1.000  O
  Fe17     1.0000 0.35990  0.00000  0.00000  Biso   1.000  Fe
  O209     1.0000 0.31220  0.00000  0.00000  Biso   1.000  O
  Fe18     1.0000 0.35990  0.50000  0.50000  Biso   1.000  Fe
  O210     1.0000 0.31220  0.50000  0.50000  Biso   1.000  O
  Fe19     1.0000 0.85990  0.00000  0.50000  Biso   1.000  Fe
  O211     1.0000 0.81220  0.00000  0.50000  Biso   1.000  O
  Fe20     1.0000 0.85990  0.50000  0.00000  Biso   1.000  Fe
  O212     1.0000 0.81220  0.50000  0.00000  Biso   1.000  O
  Fe21     1.0000 0.64010  0.00000  0.00000  Biso   1.000  Fe
  O213     1.0000 0.68780  0.00000  0.00000  Biso   1.000  O
  Fe22     1.0000 0.64010  0.50000  0.50000  Biso   1.000  Fe
  O214     1.0000 0.68780  0.50000  0.50000  Biso   1.000  O
  Fe23     1.0000 0.14010  0.00000  0.50000  Biso   1.000  Fe
  O215     1.0000 0.18780  0.00000  0.50000  Biso   1.000  O
  Fe24     1.0000 0.14010  0.50000  0.00000  Biso   1.000  Fe
  O216     1.0000 0.18780  0.50000  0.00000  Biso   1.000  O
  Fe25     1.0000 0.02727  0.28953  0.02727  Biso   1.000  Fe
  Fe26     1.0000 0.02727  0.78953  0.52727  Biso   1.000  Fe
  Fe27     1.0000 0.52727  0.28953  0.52727  Biso   1.000  Fe
  Fe28     1.0000 0.52727  0.78953  0.02727  Biso   1.000  Fe
  Fe29     1.0000 0.97273  0.71047  0.02727  Biso   1.000  Fe
  Fe30     1.0000 0.97273  0.21047  0.52727  Biso   1.000  Fe
  Fe31     1.0000 0.47273  0.71047  0.52727  Biso   1.000  Fe
  Fe32     1.0000 0.47273  0.21047  0.02727  Biso   1.000  Fe
  Fe33     1.0000 0.97273  0.28953  0.97273  Biso   1.000  Fe
  Fe34     1.0000 0.97273  0.78953  0.47273  Biso   1.000  Fe
  Fe35     1.0000 0.47273  0.28953  0.47273  Biso   1.000  Fe
  Fe36     1.0000 0.47273  0.78953  0.97273  Biso   1.000  Fe
  Fe37     1.0000 0.02727  0.71047  0.97273  Biso   1.000  Fe
  Fe38     1.0000 0.02727  0.21047  0.47273  Biso   1.000  Fe
  Fe39     1.0000 0.52727  0.71047  0.47273  Biso   1.000  Fe
  Fe40     1.0000 0.52727  0.21047  0.97273  Biso   1.000  Fe
  Fe41     1.0000 0.02727  0.02727  0.28953  Biso   1.000  Fe
  Fe42     1.0000 0.02727  0.52727  0.78953  Biso   1.000  Fe
  Fe43     1.0000 0.52727  0.02727  0.78953  Biso   1.000  Fe
  Fe44     1.0000 0.52727  0.52727  0.28953  Biso   1.000  Fe
  Fe45     1.0000 0.02727  0.97273  0.71047  Biso   1.000  Fe
  Fe46     1.0000 0.02727  0.47273  0.21047  Biso   1.000  Fe
  Fe47     1.0000 0.52727  0.97273  0.21047  Biso   1.000  Fe
  Fe48     1.0000 0.52727  0.47273  0.71047  Biso   1.000  Fe
  Fe49     1.0000 0.97273  0.97273  0.28953  Biso   1.000  Fe
  Fe50     1.0000 0.97273  0.47273  0.78953  Biso   1.000  Fe
  Fe51     1.0000 0.47273  0.97273  0.78953  Biso   1.000  Fe
  Fe52     1.0000 0.47273  0.47273  0.28953  Biso   1.000  Fe
  Fe53     1.0000 0.97273  0.02727  0.71047  Biso   1.000  Fe
  Fe54     1.0000 0.97273  0.52727  0.21047  Biso   1.000  Fe
  Fe55     1.0000 0.47273  0.02727  0.21047  Biso   1.000  Fe
  Fe56     1.0000 0.47273  0.52727  0.71047  Biso   1.000  Fe
  Fe57     1.0000 0.28953  0.02727  0.02727  Biso   1.000  Fe
  Fe58     1.0000 0.28953  0.52727  0.52727  Biso   1.000  Fe
  Fe59     1.0000 0.78953  0.02727  0.52727  Biso   1.000  Fe
  Fe60     1.0000 0.78953  0.52727  0.02727  Biso   1.000  Fe
  Fe61     1.0000 0.71047  0.02727  0.97273  Biso   1.000  Fe
  Fe62     1.0000 0.71047  0.52727  0.47273  Biso   1.000  Fe
  Fe63     1.0000 0.21047  0.02727  0.47273  Biso   1.000  Fe
  Fe64     1.0000 0.21047  0.52727  0.97273  Biso   1.000  Fe
  Fe65     1.0000 0.28953  0.97273  0.97273  Biso   1.000  Fe
  Fe66     1.0000 0.28953  0.47273  0.47273  Biso   1.000  Fe
  Fe67     1.0000 0.78953  0.97273  0.47273  Biso   1.000  Fe
  Fe68     1.0000 0.78953  0.47273  0.97273  Biso   1.000  Fe
  Fe69     1.0000 0.71047  0.97273  0.02727  Biso   1.000  Fe
  Fe70     1.0000 0.71047  0.47273  0.52727  Biso   1.000  Fe
  Fe71     1.0000 0.21047  0.97273  0.52727  Biso   1.000  Fe
  Fe72     1.0000 0.21047  0.47273  0.02727  Biso   1.000  Fe
  Fe73     1.0000 0.28953  0.02727  0.97273  Biso   1.000  Fe
  Fe74     1.0000 0.28953  0.52727  0.47273  Biso   1.000  Fe
  Fe75     1.0000 0.78953  0.02727  0.47273  Biso   1.000  Fe
  Fe76     1.0000 0.78953  0.52727  0.97273  Biso   1.000  Fe
  Fe77     1.0000 0.71047  0.97273  0.97273  Biso   1.000  Fe
  Fe78     1.0000 0.71047  0.47273  0.47273  Biso   1.000  Fe
  Fe79     1.0000 0.21047  0.97273  0.47273  Biso   1.000  Fe
  Fe80     1.0000 0.21047  0.47273  0.97273  Biso   1.000  Fe
  Fe81     1.0000 0.28953  0.97273  0.02727  Biso   1.000  Fe
  Fe82     1.0000 0.28953  0.47273  0.52727  Biso   1.000  Fe
  Fe83     1.0000 0.78953  0.97273  0.52727  Biso   1.000  Fe
  Fe84     1.0000 0.78953  0.47273  0.02727  Biso   1.000  Fe
  Fe85     1.0000 0.71047  0.02727  0.02727  Biso   1.000  Fe
  Fe86     1.0000 0.71047  0.52727  0.52727  Biso   1.000  Fe
  Fe87     1.0000 0.21047  0.02727  0.52727  Biso   1.000  Fe
  Fe88     1.0000 0.21047  0.52727  0.02727  Biso   1.000  Fe
  Fe89     1.0000 0.02727  0.02727  0.71047  Biso   1.000  Fe
  Fe90     1.0000 0.02727  0.52727  0.21047  Biso   1.000  Fe
  Fe91     1.0000 0.52727  0.02727  0.21047  Biso   1.000  Fe
  Fe92     1.0000 0.52727  0.52727  0.71047  Biso   1.000  Fe
  Fe93     1.0000 0.97273  0.02727  0.28953  Biso   1.000  Fe
  Fe94     1.0000 0.97273  0.52727  0.78953  Biso   1.000  Fe
  Fe95     1.0000 0.47273  0.02727  0.78953  Biso   1.000  Fe
  Fe96     1.0000 0.47273  0.52727  0.28953  Biso   1.000  Fe
  Fe97     1.0000 0.97273  0.97273  0.71047  Biso   1.000  Fe
  Fe98     1.0000 0.97273  0.47273  0.21047  Biso   1.000  Fe
  Fe99     1.0000 0.47273  0.97273  0.21047  Biso   1.000  Fe
  Fe100    1.0000 0.47273  0.47273  0.71047  Biso   1.000  Fe
  Fe101    1.0000 0.02727  0.97273  0.28953  Biso   1.000  Fe
  Fe102    1.0000 0.02727  0.47273  0.78953  Biso   1.000  Fe
  Fe103    1.0000 0.52727  0.97273  0.78953  Biso   1.000  Fe
  Fe104    1.0000 0.52727  0.47273  0.28953  Biso   1.000  Fe
  Fe105    1.0000 0.02727  0.28953  0.97273  Biso   1.000  Fe
  Fe106    1.0000 0.02727  0.78953  0.47273  Biso   1.000  Fe
  Fe107    1.0000 0.52727  0.28953  0.47273  Biso   1.000  Fe
  Fe108    1.0000 0.52727  0.78953  0.97273  Biso   1.000  Fe
  Fe109    1.0000 0.02727  0.71047  0.02727  Biso   1.000  Fe
  Fe110    1.0000 0.02727  0.21047  0.52727  Biso   1.000  Fe
  Fe111    1.0000 0.52727  0.71047  0.52727  Biso   1.000  Fe
  Fe112    1.0000 0.52727  0.21047  0.02727  Biso   1.000  Fe
  Fe113    1.0000 0.97273  0.28953  0.02727  Biso   1.000  Fe
  Fe114    1.0000 0.97273  0.78953  0.52727  Biso   1.000  Fe
  Fe115    1.0000 0.47273  0.28953  0.52727  Biso   1.000  Fe
  Fe116    1.0000 0.47273  0.78953  0.02727  Biso   1.000  Fe
  Fe117    1.0000 0.97273  0.71047  0.97273  Biso   1.000  Fe
  Fe118    1.0000 0.97273  0.21047  0.47273  Biso   1.000  Fe
  Fe119    1.0000 0.47273  0.71047  0.47273  Biso   1.000  Fe
  Fe120    1.0000 0.47273  0.21047  0.97273  Biso   1.000  Fe
  O217     1.0000 0.00000  0.36249  0.05044  Biso   1.000  O
  C1       1.0000 0.00000  0.33935  0.07160  Biso   1.000  C
  C2       1.0000 0.00000  0.35181  0.10642  Biso   1.000  C
  C3       1.0000 0.00000  0.32770  0.13054  Biso   1.000  C
  H577     1.0000 0.00000  0.30520  0.12450  Biso   1.000  H
  O218     1.0000 0.00000  0.86249  0.55044  Biso   1.000  O
  C4       1.0000 0.00000  0.83935  0.57160  Biso   1.000  C
  C5       1.0000 0.00000  0.85181  0.60642  Biso   1.000  C
  C6       1.0000 0.00000  0.82770  0.63054  Biso   1.000  C
  H578     1.0000 0.00000  0.80520  0.62450  Biso   1.000  H
  O219     1.0000 0.50000  0.36249  0.55044  Biso   1.000  O
  C7       1.0000 0.50000  0.33935  0.57160  Biso   1.000  C
  C8       1.0000 0.50000  0.35181  0.60642  Biso   1.000  C
  C9       1.0000 0.50000  0.32770  0.63054  Biso   1.000  C
  H579     1.0000 0.50000  0.30520  0.62450  Biso   1.000  H
  O220     1.0000 0.50000  0.86249  0.05044  Biso   1.000  O
  C10      1.0000 0.50000  0.83935  0.07160  Biso   1.000  C
  C11      1.0000 0.50000  0.85181  0.10642  Biso   1.000  C
  C12      1.0000 0.50000  0.82770  0.13054  Biso   1.000  C
  H580     1.0000 0.50000  0.80520  0.12450  Biso   1.000  H
  O221     1.0000 0.00000  0.63751  0.05044  Biso   1.000  O
  C13      1.0000 0.00000  0.66065  0.07160  Biso   1.000  C
  C14      1.0000 0.00000  0.64819  0.10642  Biso   1.000  C
  C15      1.0000 0.00000  0.67230  0.13054  Biso   1.000  C
  H581     1.0000 0.00000  0.69480  0.12450  Biso   1.000  H
  O222     1.0000 0.00000  0.13751  0.55044  Biso   1.000  O
  C16      1.0000 0.00000  0.16065  0.57160  Biso   1.000  C
  C17      1.0000 0.00000  0.14819  0.60642  Biso   1.000  C
  C18      1.0000 0.00000  0.17230  0.63054  Biso   1.000  C
  H582     1.0000 0.00000  0.19480  0.62450  Biso   1.000  H
  O223     1.0000 0.50000  0.63751  0.55044  Biso   1.000  O
  C19      1.0000 0.50000  0.66065  0.57160  Biso   1.000  C
  C20      1.0000 0.50000  0.64819  0.60642  Biso   1.000  C
  C21      1.0000 0.50000  0.67230  0.63054  Biso   1.000  C
  H583     1.0000 0.50000  0.69480  0.62450  Biso   1.000  H
  O224     1.0000 0.50000  0.13751  0.05044  Biso   1.000  O
  C22      1.0000 0.50000  0.16065  0.07160  Biso   1.000  C
  C23      1.0000 0.50000  0.14819  0.10642  Biso   1.000  C
  C24      1.0000 0.50000  0.17230  0.13054  Biso   1.000  C
  H584     1.0000 0.50000  0.19480  0.12450  Biso   1.000  H
  O225     1.0000 0.00000  0.36249  0.94956  Biso   1.000  O
  C25      1.0000 0.00000  0.33935  0.92840  Biso   1.000  C
  C26      1.0000 0.00000  0.35181  0.89358  Biso   1.000  C
  C27      1.0000 0.00000  0.32770  0.86946  Biso   1.000  C
  H585     1.0000 0.00000  0.30520  0.87550  Biso   1.000  H
  O226     1.0000 0.00000  0.86249  0.44956  Biso   1.000  O
  C28      1.0000 0.00000  0.83935  0.42840  Biso   1.000  C
  C29      1.0000 0.00000  0.85181  0.39358  Biso   1.000  C
  C30      1.0000 0.00000  0.82770  0.36946  Biso   1.000  C
  H586     1.0000 0.00000  0.80520  0.37550  Biso   1.000  H
  O227     1.0000 0.50000  0.36249  0.44956  Biso   1.000  O
  C31      1.0000 0.50000  0.33935  0.42840  Biso   1.000  C
  C32      1.0000 0.50000  0.35181  0.39358  Biso   1.000  C
  C33      1.0000 0.50000  0.32770  0.36946  Biso   1.000  C
  H587     1.0000 0.50000  0.30520  0.37550  Biso   1.000  H
  O228     1.0000 0.50000  0.86249  0.94956  Biso   1.000  O
  C34      1.0000 0.50000  0.83935  0.92840  Biso   1.000  C
  C35      1.0000 0.50000  0.85181  0.89358  Biso   1.000  C
  C36      1.0000 0.50000  0.82770  0.86946  Biso   1.000  C
  H588     1.0000 0.50000  0.80520  0.87550  Biso   1.000  H
  O229     1.0000 0.00000  0.63751  0.94956  Biso   1.000  O
  C37      1.0000 0.00000  0.66065  0.92840  Biso   1.000  C
  C38      1.0000 0.00000  0.64819  0.89358  Biso   1.000  C
  C39      1.0000 0.00000  0.67230  0.86946  Biso   1.000  C
  H589     1.0000 0.00000  0.69480  0.87550  Biso   1.000  H
  O230     1.0000 0.00000  0.13751  0.44956  Biso   1.000  O
  C40      1.0000 0.00000  0.16065  0.42840  Biso   1.000  C
  C41      1.0000 0.00000  0.14819  0.39358  Biso   1.000  C
  C42      1.0000 0.00000  0.17230  0.36946  Biso   1.000  C
  H590     1.0000 0.00000  0.19480  0.37550  Biso   1.000  H
  O231     1.0000 0.50000  0.63751  0.44956  Biso   1.000  O
  C43      1.0000 0.50000  0.66065  0.42840  Biso   1.000  C
  C44      1.0000 0.50000  0.64819  0.39358  Biso   1.000  C
  C45      1.0000 0.50000  0.67230  0.36946  Biso   1.000  C
  H591     1.0000 0.50000  0.69480  0.37550  Biso   1.000  H
  O232     1.0000 0.50000  0.13751  0.94956  Biso   1.000  O
  C46      1.0000 0.50000  0.16065  0.92840  Biso   1.000  C
  C47      1.0000 0.50000  0.14819  0.89358  Biso   1.000  C
  C48      1.0000 0.50000  0.17230  0.86946  Biso   1.000  C
  H592     1.0000 0.50000  0.19480  0.87550  Biso   1.000  H
  O233     1.0000 0.05044  0.00000  0.36249  Biso   1.000  O
  C49      1.0000 0.07160  0.00000  0.33935  Biso   1.000  C
  C50      1.0000 0.10642  0.00000  0.35181  Biso   1.000  C
  C51      1.0000 0.13054  0.00000  0.32770  Biso   1.000  C
  H593     1.0000 0.12450  0.00000  0.30520  Biso   1.000  H
  O234     1.0000 0.05044  0.50000  0.86249  Biso   1.000  O
  C52      1.0000 0.07160  0.50000  0.83935  Biso   1.000  C
  C53      1.0000 0.10642  0.50000  0.85181  Biso   1.000  C
  C54      1.0000 0.13054  0.50000  0.82770  Biso   1.000  C
  H594     1.0000 0.12450  0.50000  0.80520  Biso   1.000  H
  O235     1.0000 0.55044  0.00000  0.86249  Biso   1.000  O
  C55      1.0000 0.57160  0.00000  0.83935  Biso   1.000  C
  C56      1.0000 0.60642  0.00000  0.85181  Biso   1.000  C
  C57      1.0000 0.63054  0.00000  0.82770  Biso   1.000  C
  H595     1.0000 0.62450  0.00000  0.80520  Biso   1.000  H
  O236     1.0000 0.55044  0.50000  0.36249  Biso   1.000  O
  C58      1.0000 0.57160  0.50000  0.33935  Biso   1.000  C
  C59      1.0000 0.60642  0.50000  0.35181  Biso   1.000  C
  C60      1.0000 0.63054  0.50000  0.32770  Biso   1.000  C
  H596     1.0000 0.62450  0.50000  0.30520  Biso   1.000  H
  O237     1.0000 0.05044  0.00000  0.63751  Biso   1.000  O
  C61      1.0000 0.07160  0.00000  0.66065  Biso   1.000  C
  C62      1.0000 0.10642  0.00000  0.64819  Biso   1.000  C
  C63      1.0000 0.13054  0.00000  0.67230  Biso   1.000  C
  H597     1.0000 0.12450  0.00000  0.69480  Biso   1.000  H
  O238     1.0000 0.05044  0.50000  0.13751  Biso   1.000  O
  C64      1.0000 0.07160  0.50000  0.16065  Biso   1.000  C
  C65      1.0000 0.10642  0.50000  0.14819  Biso   1.000  C
  C66      1.0000 0.13054  0.50000  0.17230  Biso   1.000  C
  H598     1.0000 0.12450  0.50000  0.19480  Biso   1.000  H
  O239     1.0000 0.55044  0.00000  0.13751  Biso   1.000  O
  C67      1.0000 0.57160  0.00000  0.16065  Biso   1.000  C
  C68      1.0000 0.60642  0.00000  0.14819  Biso   1.000  C
  C69      1.0000 0.63054  0.00000  0.17230  Biso   1.000  C
  H599     1.0000 0.62450  0.00000  0.19480  Biso   1.000  H
  O240     1.0000 0.55044  0.50000  0.63751  Biso   1.000  O
  C70      1.0000 0.57160  0.50000  0.66065  Biso   1.000  C
  C71      1.0000 0.60642  0.50000  0.64819  Biso   1.000  C
  C72      1.0000 0.63054  0.50000  0.67230  Biso   1.000  C
  H600     1.0000 0.62450  0.50000  0.69480  Biso   1.000  H
  O241     1.0000 0.94956  0.00000  0.36249  Biso   1.000  O
  C73      1.0000 0.92840  0.00000  0.33935  Biso   1.000  C
  C74      1.0000 0.89358  0.00000  0.35181  Biso   1.000  C
  C75      1.0000 0.86946  0.00000  0.32770  Biso   1.000  C
  H601     1.0000 0.87550  0.00000  0.30520  Biso   1.000  H
  O242     1.0000 0.94956  0.50000  0.86249  Biso   1.000  O
  C76      1.0000 0.92840  0.50000  0.83935  Biso   1.000  C
  C77      1.0000 0.89358  0.50000  0.85181  Biso   1.000  C
  C78      1.0000 0.86946  0.50000  0.82770  Biso   1.000  C
  H602     1.0000 0.87550  0.50000  0.80520  Biso   1.000  H
  O243     1.0000 0.44956  0.00000  0.86249  Biso   1.000  O
  C79      1.0000 0.42840  0.00000  0.83935  Biso   1.000  C
  C80      1.0000 0.39358  0.00000  0.85181  Biso   1.000  C
  C81      1.0000 0.36946  0.00000  0.82770  Biso   1.000  C
  H603     1.0000 0.37550  0.00000  0.80520  Biso   1.000  H
  O244     1.0000 0.44956  0.50000  0.36249  Biso   1.000  O
  C82      1.0000 0.42840  0.50000  0.33935  Biso   1.000  C
  C83      1.0000 0.39358  0.50000  0.35181  Biso   1.000  C
  C84      1.0000 0.36946  0.50000  0.32770  Biso   1.000  C
  H604     1.0000 0.37550  0.50000  0.30520  Biso   1.000  H
  O245     1.0000 0.94956  0.00000  0.63751  Biso   1.000  O
  C85      1.0000 0.92840  0.00000  0.66065  Biso   1.000  C
  C86      1.0000 0.89358  0.00000  0.64819  Biso   1.000  C
  C87      1.0000 0.86946  0.00000  0.67230  Biso   1.000  C
  H605     1.0000 0.87550  0.00000  0.69480  Biso   1.000  H
  O246     1.0000 0.94956  0.50000  0.13751  Biso   1.000  O
  C88      1.0000 0.92840  0.50000  0.16065  Biso   1.000  C
  C89      1.0000 0.89358  0.50000  0.14819  Biso   1.000  C
  C90      1.0000 0.86946  0.50000  0.17230  Biso   1.000  C
  H606     1.0000 0.87550  0.50000  0.19480  Biso   1.000  H
  O247     1.0000 0.44956  0.00000  0.13751  Biso   1.000  O
  C91      1.0000 0.42840  0.00000  0.16065  Biso   1.000  C
  C92      1.0000 0.39358  0.00000  0.14819  Biso   1.000  C
  C93      1.0000 0.36946  0.00000  0.17230  Biso   1.000  C
  H607     1.0000 0.37550  0.00000  0.19480  Biso   1.000  H
  O248     1.0000 0.44956  0.50000  0.63751  Biso   1.000  O
  C94      1.0000 0.42840  0.50000  0.66065  Biso   1.000  C
  C95      1.0000 0.39358  0.50000  0.64819  Biso   1.000  C
  C96      1.0000 0.36946  0.50000  0.67230  Biso   1.000  C
  H608     1.0000 0.37550  0.50000  0.69480  Biso   1.000  H
  O249     1.0000 0.36249  0.05044  0.00000  Biso   1.000  O
  C97      1.0000 0.33935  0.07160  0.00000  Biso   1.000  C
  C98      1.0000 0.35181  0.10642  0.00000  Biso   1.000  C
  C99      1.0000 0.32770  0.13054  0.00000  Biso   1.000  C
  H609     1.0000 0.30520  0.12450  0.00000  Biso   1.000  H
  O250     1.0000 0.36249  0.55044  0.50000  Biso   1.000  O
  C100     1.0000 0.33935  0.57160  0.50000  Biso   1.000  C
  C101     1.0000 0.35181  0.60642  0.50000  Biso   1.000  C
  C102     1.0000 0.32770  0.63054  0.50000  Biso   1.000  C
  H610     1.0000 0.30520  0.62450  0.50000  Biso   1.000  H
  O251     1.0000 0.86249  0.05044  0.50000  Biso   1.000  O
  C103     1.0000 0.83935  0.07160  0.50000  Biso   1.000  C
  C104     1.0000 0.85181  0.10642  0.50000  Biso   1.000  C
  C105     1.0000 0.82770  0.13054  0.50000  Biso   1.000  C
  H611     1.0000 0.80520  0.12450  0.50000  Biso   1.000  H
  O252     1.0000 0.86249  0.55044  0.00000  Biso   1.000  O
  C106     1.0000 0.83935  0.57160  0.00000  Biso   1.000  C
  C107     1.0000 0.85181  0.60642  0.00000  Biso   1.000  C
  C108     1.0000 0.82770  0.63054  0.00000  Biso   1.000  C
  H612     1.0000 0.80520  0.62450  0.00000  Biso   1.000  H
  O253     1.0000 0.63751  0.05044  0.00000  Biso   1.000  O
  C109     1.0000 0.66065  0.07160  0.00000  Biso   1.000  C
  C110     1.0000 0.64819  0.10642  0.00000  Biso   1.000  C
  C111     1.0000 0.67230  0.13054  0.00000  Biso   1.000  C
  H613     1.0000 0.69480  0.12450  0.00000  Biso   1.000  H
  O254     1.0000 0.63751  0.55044  0.50000  Biso   1.000  O
  C112     1.0000 0.66065  0.57160  0.50000  Biso   1.000  C
  C113     1.0000 0.64819  0.60642  0.50000  Biso   1.000  C
  C114     1.0000 0.67230  0.63054  0.50000  Biso   1.000  C
  H614     1.0000 0.69480  0.62450  0.50000  Biso   1.000  H
  O255     1.0000 0.13751  0.05044  0.50000  Biso   1.000  O
  C115     1.0000 0.16065  0.07160  0.50000  Biso   1.000  C
  C116     1.0000 0.14819  0.10642  0.50000  Biso   1.000  C
  C117     1.0000 0.17230  0.13054  0.50000  Biso   1.000  C
  H615     1.0000 0.19480  0.12450  0.50000  Biso   1.000  H
  O256     1.0000 0.13751  0.55044  0.00000  Biso   1.000  O
  C118     1.0000 0.16065  0.57160  0.00000  Biso   1.000  C
  C119     1.0000 0.14819  0.60642  0.00000  Biso   1.000  C
  C120     1.0000 0.17230  0.63054  0.00000  Biso   1.000  C
  H616     1.0000 0.19480  0.62450  0.00000  Biso   1.000  H
  O257     1.0000 0.36249  0.94956  0.00000  Biso   1.000  O
  C121     1.0000 0.33935  0.92840  0.00000  Biso   1.000  C
  C122     1.0000 0.35181  0.89358  0.00000  Biso   1.000  C
  C123     1.0000 0.32770  0.86946  0.00000  Biso   1.000  C
  H617     1.0000 0.30520  0.87550  0.00000  Biso   1.000  H
  O258     1.0000 0.36249  0.44956  0.50000  Biso   1.000  O
  C124     1.0000 0.33935  0.42840  0.50000  Biso   1.000  C
  C125     1.0000 0.35181  0.39358  0.50000  Biso   1.000  C
  C126     1.0000 0.32770  0.36946  0.50000  Biso   1.000  C
  H618     1.0000 0.30520  0.37550  0.50000  Biso   1.000  H
  O259     1.0000 0.86249  0.94956  0.50000  Biso   1.000  O
  C127     1.0000 0.83935  0.92840  0.50000  Biso   1.000  C
  C128     1.0000 0.85181  0.89358  0.50000  Biso   1.000  C
  C129     1.0000 0.82770  0.86946  0.50000  Biso   1.000  C
  H619     1.0000 0.80520  0.87550  0.50000  Biso   1.000  H
  O260     1.0000 0.86249  0.44956  0.00000  Biso   1.000  O
  C130     1.0000 0.83935  0.42840  0.00000  Biso   1.000  C
  C131     1.0000 0.85181  0.39358  0.00000  Biso   1.000  C
  C132     1.0000 0.82770  0.36946  0.00000  Biso   1.000  C
  H620     1.0000 0.80520  0.37550  0.00000  Biso   1.000  H
  O261     1.0000 0.63751  0.94956  0.00000  Biso   1.000  O
  C133     1.0000 0.66065  0.92840  0.00000  Biso   1.000  C
  C134     1.0000 0.64819  0.89358  0.00000  Biso   1.000  C
  C135     1.0000 0.67230  0.86946  0.00000  Biso   1.000  C
  H621     1.0000 0.69480  0.87550  0.00000  Biso   1.000  H
  O262     1.0000 0.63751  0.44956  0.50000  Biso   1.000  O
  C136     1.0000 0.66065  0.42840  0.50000  Biso   1.000  C
  C137     1.0000 0.64819  0.39358  0.50000  Biso   1.000  C
  C138     1.0000 0.67230  0.36946  0.50000  Biso   1.000  C
  H622     1.0000 0.69480  0.37550  0.50000  Biso   1.000  H
  O263     1.0000 0.13751  0.94956  0.50000  Biso   1.000  O
  C139     1.0000 0.16065  0.92840  0.50000  Biso   1.000  C
  C140     1.0000 0.14819  0.89358  0.50000  Biso   1.000  C
  C141     1.0000 0.17230  0.86946  0.50000  Biso   1.000  C
  H623     1.0000 0.19480  0.87550  0.50000  Biso   1.000  H
  O264     1.0000 0.13751  0.44956  0.00000  Biso   1.000  O
  C142     1.0000 0.16065  0.42840  0.00000  Biso   1.000  C
  C143     1.0000 0.14819  0.39358  0.00000  Biso   1.000  C
  C144     1.0000 0.17230  0.36946  0.00000  Biso   1.000  C
  H624     1.0000 0.19480  0.37550  0.00000  Biso   1.000  H
  O265     1.0000 0.36249  0.00000  0.94956  Biso   1.000  O
  C145     1.0000 0.33935  0.00000  0.92840  Biso   1.000  C
  C146     1.0000 0.35181  0.00000  0.89358  Biso   1.000  C
  C147     1.0000 0.32770  0.00000  0.86946  Biso   1.000  C
  H625     1.0000 0.30520  0.00000  0.87550  Biso   1.000  H
  O266     1.0000 0.36249  0.50000  0.44956  Biso   1.000  O
  C148     1.0000 0.33935  0.50000  0.42840  Biso   1.000  C
  C149     1.0000 0.35181  0.50000  0.39358  Biso   1.000  C
  C150     1.0000 0.32770  0.50000  0.36946  Biso   1.000  C
  H626     1.0000 0.30520  0.50000  0.37550  Biso   1.000  H
  O267     1.0000 0.86249  0.00000  0.44956  Biso   1.000  O
  C151     1.0000 0.83935  0.00000  0.42840  Biso   1.000  C
  C152     1.0000 0.85181  0.00000  0.39358  Biso   1.000  C
  C153     1.0000 0.82770  0.00000  0.36946  Biso   1.000  C
  H627     1.0000 0.80520  0.00000  0.37550  Biso   1.000  H
  O268     1.0000 0.86249  0.50000  0.94956  Biso   1.000  O
  C154     1.0000 0.83935  0.50000  0.92840  Biso   1.000  C
  C155     1.0000 0.85181  0.50000  0.89358  Biso   1.000  C
  C156     1.0000 0.82770  0.50000  0.86946  Biso   1.000  C
  H628     1.0000 0.80520  0.50000  0.87550  Biso   1.000  H
  O269     1.0000 0.63751  0.00000  0.94956  Biso   1.000  O
  C157     1.0000 0.66065  0.00000  0.92840  Biso   1.000  C
  C158     1.0000 0.64819  0.00000  0.89358  Biso   1.000  C
  C159     1.0000 0.67230  0.00000  0.86946  Biso   1.000  C
  H629     1.0000 0.69480  0.00000  0.87550  Biso   1.000  H
  O270     1.0000 0.63751  0.50000  0.44956  Biso   1.000  O
  C160     1.0000 0.66065  0.50000  0.42840  Biso   1.000  C
  C161     1.0000 0.64819  0.50000  0.39358  Biso   1.000  C
  C162     1.0000 0.67230  0.50000  0.36946  Biso   1.000  C
  H630     1.0000 0.69480  0.50000  0.37550  Biso   1.000  H
  O271     1.0000 0.13751  0.00000  0.44956  Biso   1.000  O
  C163     1.0000 0.16065  0.00000  0.42840  Biso   1.000  C
  C164     1.0000 0.14819  0.00000  0.39358  Biso   1.000  C
  C165     1.0000 0.17230  0.00000  0.36946  Biso   1.000  C
  H631     1.0000 0.19480  0.00000  0.37550  Biso   1.000  H
  O272     1.0000 0.13751  0.50000  0.94956  Biso   1.000  O
  C166     1.0000 0.16065  0.50000  0.92840  Biso   1.000  C
  C167     1.0000 0.14819  0.50000  0.89358  Biso   1.000  C
  C168     1.0000 0.17230  0.50000  0.86946  Biso   1.000  C
  H632     1.0000 0.19480  0.50000  0.87550  Biso   1.000  H
  O273     1.0000 0.36249  0.00000  0.05044  Biso   1.000  O
  C169     1.0000 0.33935  0.00000  0.07160  Biso   1.000  C
  C170     1.0000 0.35181  0.00000  0.10642  Biso   1.000  C
  C171     1.0000 0.32770  0.00000  0.13054  Biso   1.000  C
  H633     1.0000 0.30520  0.00000  0.12450  Biso   1.000  H
  O274     1.0000 0.36249  0.50000  0.55044  Biso   1.000  O
  C172     1.0000 0.33935  0.50000  0.57160  Biso   1.000  C
  C173     1.0000 0.35181  0.50000  0.60642  Biso   1.000  C
  C174     1.0000 0.32770  0.50000  0.63054  Biso   1.000  C
  H634     1.0000 0.30520  0.50000  0.62450  Biso   1.000  H
  O275     1.0000 0.86249  0.00000  0.55044  Biso   1.000  O
  C175     1.0000 0.83935  0.00000  0.57160  Biso   1.000  C
  C176     1.0000 0.85181  0.00000  0.60642  Biso   1.000  C
  C177     1.0000 0.82770  0.00000  0.63054  Biso   1.000  C
  H635     1.0000 0.80520  0.00000  0.62450  Biso   1.000  H
  O276     1.0000 0.86249  0.50000  0.05044  Biso   1.000  O
  C178     1.0000 0.83935  0.50000  0.07160  Biso   1.000  C
  C179     1.0000 0.85181  0.50000  0.10642  Biso   1.000  C
  C180     1.0000 0.82770  0.50000  0.13054  Biso   1.000  C
  H636     1.0000 0.80520  0.50000  0.12450  Biso   1.000  H
  O277     1.0000 0.63751  0.00000  0.05044  Biso   1.000  O
  C181     1.0000 0.66065  0.00000  0.07160  Biso   1.000  C
  C182     1.0000 0.64819  0.00000  0.10642  Biso   1.000  C
  C183     1.0000 0.67230  0.00000  0.13054  Biso   1.000  C
  H637     1.0000 0.69480  0.00000  0.12450  Biso   1.000  H
  O278     1.0000 0.63751  0.50000  0.55044  Biso   1.000  O
  C184     1.0000 0.66065  0.50000  0.57160  Biso   1.000  C
  C185     1.0000 0.64819  0.50000  0.60642  Biso   1.000  C
  C186     1.0000 0.67230  0.50000  0.63054  Biso   1.000  C
  H638     1.0000 0.69480  0.50000  0.62450  Biso   1.000  H
  O279     1.0000 0.13751  0.00000  0.55044  Biso   1.000  O
  C187     1.0000 0.16065  0.00000  0.57160  Biso   1.000  C
  C188     1.0000 0.14819  0.00000  0.60642  Biso   1.000  C
  C189     1.0000 0.17230  0.00000  0.63054  Biso   1.000  C
  H639     1.0000 0.19480  0.00000  0.62450  Biso   1.000  H
  O280     1.0000 0.13751  0.50000  0.05044  Biso   1.000  O
  C190     1.0000 0.16065  0.50000  0.07160  Biso   1.000  C
  C191     1.0000 0.14819  0.50000  0.10642  Biso   1.000  C
  C192     1.0000 0.17230  0.50000  0.13054  Biso   1.000  C
  H640     1.0000 0.19480  0.50000  0.12450  Biso   1.000  H
  O281     1.0000 0.00000  0.05044  0.63751  Biso   1.000  O
  C193     1.0000 0.00000  0.07160  0.66065  Biso   1.000  C
  C194     1.0000 0.00000  0.10642  0.64819  Biso   1.000  C
  C195     1.0000 0.00000  0.13054  0.67230  Biso   1.000  C
  H641     1.0000 0.00000  0.12450  0.69480  Biso   1.000  H
  O282     1.0000 0.00000  0.55044  0.13751  Biso   1.000  O
  C196     1.0000 0.00000  0.57160  0.16065  Biso   1.000  C
  C197     1.0000 0.00000  0.60642  0.14819  Biso   1.000  C
  C198     1.0000 0.00000  0.63054  0.17230  Biso   1.000  C
  H642     1.0000 0.00000  0.62450  0.19480  Biso   1.000  H
  O283     1.0000 0.50000  0.05044  0.13751  Biso   1.000  O
  C199     1.0000 0.50000  0.07160  0.16065  Biso   1.000  C
  C200     1.0000 0.50000  0.10642  0.14819  Biso   1.000  C
  C201     1.0000 0.50000  0.13054  0.17230  Biso   1.000  C
  H643     1.0000 0.50000  0.12450  0.19480  Biso   1.000  H
  O284     1.0000 0.50000  0.55044  0.63751  Biso   1.000  O
  C202     1.0000 0.50000  0.57160  0.66065  Biso   1.000  C
  C203     1.0000 0.50000  0.60642  0.64819  Biso   1.000  C
  C204     1.0000 0.50000  0.63054  0.67230  Biso   1.000  C
  H644     1.0000 0.50000  0.62450  0.69480  Biso   1.000  H
  O285     1.0000 0.00000  0.05044  0.36249  Biso   1.000  O
  C205     1.0000 0.00000  0.07160  0.33935  Biso   1.000  C
  C206     1.0000 0.00000  0.10642  0.35181  Biso   1.000  C
  C207     1.0000 0.00000  0.13054  0.32770  Biso   1.000  C
  H645     1.0000 0.00000  0.12450  0.30520  Biso   1.000  H
  O286     1.0000 0.00000  0.55044  0.86249  Biso   1.000  O
  C208     1.0000 0.00000  0.57160  0.83935  Biso   1.000  C
  C209     1.0000 0.00000  0.60642  0.85181  Biso   1.000  C
  C210     1.0000 0.00000  0.63054  0.82770  Biso   1.000  C
  H646     1.0000 0.00000  0.62450  0.80520  Biso   1.000  H
  O287     1.0000 0.50000  0.05044  0.86249  Biso   1.000  O
  C211     1.0000 0.50000  0.07160  0.83935  Biso   1.000  C
  C212     1.0000 0.50000  0.10642  0.85181  Biso   1.000  C
  C213     1.0000 0.50000  0.13054  0.82770  Biso   1.000  C
  H647     1.0000 0.50000  0.12450  0.80520  Biso   1.000  H
  O288     1.0000 0.50000  0.55044  0.36249  Biso   1.000  O
  C214     1.0000 0.50000  0.57160  0.33935  Biso   1.000  C
  C215     1.0000 0.50000  0.60642  0.35181  Biso   1.000  C
  C216     1.0000 0.50000  0.63054  0.32770  Biso   1.000  C
  H648     1.0000 0.50000  0.62450  0.30520  Biso   1.000  H
  O289     1.0000 0.00000  0.94956  0.63751  Biso   1.000  O
  C217     1.0000 0.00000  0.92840  0.66065  Biso   1.000  C
  C218     1.0000 0.00000  0.89358  0.64819  Biso   1.000  C
  C219     1.0000 0.00000  0.86946  0.67230  Biso   1.000  C
  H649     1.0000 0.00000  0.87550  0.69480  Biso   1.000  H
  O290     1.0000 0.00000  0.44956  0.13751  Biso   1.000  O
  C220     1.0000 0.00000  0.42840  0.16065  Biso   1.000  C
  C221     1.0000 0.00000  0.39358  0.14819  Biso   1.000  C
  C222     1.0000 0.00000  0.36946  0.17230  Biso   1.000  C
  H650     1.0000 0.00000  0.37550  0.19480  Biso   1.000  H
  O291     1.0000 0.50000  0.94956  0.13751  Biso   1.000  O
  C223     1.0000 0.50000  0.92840  0.16065  Biso   1.000  C
  C224     1.0000 0.50000  0.89358  0.14819  Biso   1.000  C
  C225     1.0000 0.50000  0.86946  0.17230  Biso   1.000  C
  H651     1.0000 0.50000  0.87550  0.19480  Biso   1.000  H
  O292     1.0000 0.50000  0.44956  0.63751  Biso   1.000  O
  C226     1.0000 0.50000  0.42840  0.66065  Biso   1.000  C
  C227     1.0000 0.50000  0.39358  0.64819  Biso   1.000  C
  C228     1.0000 0.50000  0.36946  0.67230  Biso   1.000  C
  H652     1.0000 0.50000  0.37550  0.69480  Biso   1.000  H
  O293     1.0000 0.00000  0.94956  0.36249  Biso   1.000  O
  C229     1.0000 0.00000  0.92840  0.33935  Biso   1.000  C
  C230     1.0000 0.00000  0.89358  0.35181  Biso   1.000  C
  C231     1.0000 0.00000  0.86946  0.32770  Biso   1.000  C
  H653     1.0000 0.00000  0.87550  0.30520  Biso   1.000  H
  O294     1.0000 0.00000  0.44956  0.86249  Biso   1.000  O
  C232     1.0000 0.00000  0.42840  0.83935  Biso   1.000  C
  C233     1.0000 0.00000  0.39358  0.85181  Biso   1.000  C
  C234     1.0000 0.00000  0.36946  0.82770  Biso   1.000  C
  H654     1.0000 0.00000  0.37550  0.80520  Biso   1.000  H
  O295     1.0000 0.50000  0.94956  0.86249  Biso   1.000  O
  C235     1.0000 0.50000  0.92840  0.83935  Biso   1.000  C
  C236     1.0000 0.50000  0.89358  0.85181  Biso   1.000  C
  C237     1.0000 0.50000  0.86946  0.82770  Biso   1.000  C
  H655     1.0000 0.50000  0.87550  0.80520  Biso   1.000  H
  O296     1.0000 0.50000  0.44956  0.36249  Biso   1.000  O
  C238     1.0000 0.50000  0.42840  0.33935  Biso   1.000  C
  C239     1.0000 0.50000  0.39358  0.35181  Biso   1.000  C
  C240     1.0000 0.50000  0.36946  0.32770  Biso   1.000  C
  H656     1.0000 0.50000  0.37550  0.30520  Biso   1.000  H
  O297     1.0000 0.05044  0.36249  0.00000  Biso   1.000  O
  C241     1.0000 0.07160  0.33935  0.00000  Biso   1.000  C
  C242     1.0000 0.10642  0.35181  0.00000  Biso   1.000  C
  C243     1.0000 0.13054  0.32770  0.00000  Biso   1.000  C
  H657     1.0000 0.12450  0.30520  0.00000  Biso   1.000  H
  O298     1.0000 0.05044  0.86249  0.50000  Biso   1.000  O
  C244     1.0000 0.07160  0.83935  0.50000  Biso   1.000  C
  C245     1.0000 0.10642  0.85181  0.50000  Biso   1.000  C
  C246     1.0000 0.13054  0.82770  0.50000  Biso   1.000  C
  H658     1.0000 0.12450  0.80520  0.50000  Biso   1.000  H
  O299     1.0000 0.55044  0.36249  0.50000  Biso   1.000  O
  C247     1.0000 0.57160  0.33935  0.50000  Biso   1.000  C
  C248     1.0000 0.60642  0.35181  0.50000  Biso   1.000  C
  C249     1.0000 0.63054  0.32770  0.50000  Biso   1.000  C
  H659     1.0000 0.62450  0.30520  0.50000  Biso   1.000  H
  O300     1.0000 0.55044  0.86249  0.00000  Biso   1.000  O
  C250     1.0000 0.57160  0.83935  0.00000  Biso   1.000  C
  C251     1.0000 0.60642  0.85181  0.00000  Biso   1.000  C
  C252     1.0000 0.63054  0.82770  0.00000  Biso   1.000  C
  H660     1.0000 0.62450  0.80520  0.00000  Biso   1.000  H
  O301     1.0000 0.05044  0.63751  0.00000  Biso   1.000  O
  C253     1.0000 0.07160  0.66065  0.00000  Biso   1.000  C
  C254     1.0000 0.10642  0.64819  0.00000  Biso   1.000  C
  C255     1.0000 0.13054  0.67230  0.00000  Biso   1.000  C
  H661     1.0000 0.12450  0.69480  0.00000  Biso   1.000  H
  O302     1.0000 0.05044  0.13751  0.50000  Biso   1.000  O
  C256     1.0000 0.07160  0.16065  0.50000  Biso   1.000  C
  C257     1.0000 0.10642  0.14819  0.50000  Biso   1.000  C
  C258     1.0000 0.13054  0.17230  0.50000  Biso   1.000  C
  H662     1.0000 0.12450  0.19480  0.50000  Biso   1.000  H
  O303     1.0000 0.55044  0.63751  0.50000  Biso   1.000  O
  C259     1.0000 0.57160  0.66065  0.50000  Biso   1.000  C
  C260     1.0000 0.60642  0.64819  0.50000  Biso   1.000  C
  C261     1.0000 0.63054  0.67230  0.50000  Biso   1.000  C
  H663     1.0000 0.62450  0.69480  0.50000  Biso   1.000  H
  O304     1.0000 0.55044  0.13751  0.00000  Biso   1.000  O
  C262     1.0000 0.57160  0.16065  0.00000  Biso   1.000  C
  C263     1.0000 0.60642  0.14819  0.00000  Biso   1.000  C
  C264     1.0000 0.63054  0.17230  0.00000  Biso   1.000  C
  H664     1.0000 0.62450  0.19480  0.00000  Biso   1.000  H
  O305     1.0000 0.94956  0.36249  0.00000  Biso   1.000  O
  C265     1.0000 0.92840  0.33935  0.00000  Biso   1.000  C
  C266     1.0000 0.89358  0.35181  0.00000  Biso   1.000  C
  C267     1.0000 0.86946  0.32770  0.00000  Biso   1.000  C
  H665     1.0000 0.87550  0.30520  0.00000  Biso   1.000  H
  O306     1.0000 0.94956  0.86249  0.50000  Biso   1.000  O
  C268     1.0000 0.92840  0.83935  0.50000  Biso   1.000  C
  C269     1.0000 0.89358  0.85181  0.50000  Biso   1.000  C
  C270     1.0000 0.86946  0.82770  0.50000  Biso   1.000  C
  H666     1.0000 0.87550  0.80520  0.50000  Biso   1.000  H
  O307     1.0000 0.44956  0.36249  0.50000  Biso   1.000  O
  C271     1.0000 0.42840  0.33935  0.50000  Biso   1.000  C
  C272     1.0000 0.39358  0.35181  0.50000  Biso   1.000  C
  C273     1.0000 0.36946  0.32770  0.50000  Biso   1.000  C
  H667     1.0000 0.37550  0.30520  0.50000  Biso   1.000  H
  O308     1.0000 0.44956  0.86249  0.00000  Biso   1.000  O
  C274     1.0000 0.42840  0.83935  0.00000  Biso   1.000  C
  C275     1.0000 0.39358  0.85181  0.00000  Biso   1.000  C
  C276     1.0000 0.36946  0.82770  0.00000  Biso   1.000  C
  H668     1.0000 0.37550  0.80520  0.00000  Biso   1.000  H
  O309     1.0000 0.94956  0.63751  0.00000  Biso   1.000  O
  C277     1.0000 0.92840  0.66065  0.00000  Biso   1.000  C
  C278     1.0000 0.89358  0.64819  0.00000  Biso   1.000  C
  C279     1.0000 0.86946  0.67230  0.00000  Biso   1.000  C
  H669     1.0000 0.87550  0.69480  0.00000  Biso   1.000  H
  O310     1.0000 0.94956  0.13751  0.50000  Biso   1.000  O
  C280     1.0000 0.92840  0.16065  0.50000  Biso   1.000  C
  C281     1.0000 0.89358  0.14819  0.50000  Biso   1.000  C
  C282     1.0000 0.86946  0.17230  0.50000  Biso   1.000  C
  H670     1.0000 0.87550  0.19480  0.50000  Biso   1.000  H
  O311     1.0000 0.44956  0.63751  0.50000  Biso   1.000  O
  C283     1.0000 0.42840  0.66065  0.50000  Biso   1.000  C
  C284     1.0000 0.39358  0.64819  0.50000  Biso   1.000  C
  C285     1.0000 0.36946  0.67230  0.50000  Biso   1.000  C
  H671     1.0000 0.37550  0.69480  0.50000  Biso   1.000  H
  O312     1.0000 0.44956  0.13751  0.00000  Biso   1.000  O
  C286     1.0000 0.42840  0.16065  0.00000  Biso   1.000  C
  C287     1.0000 0.39358  0.14819  0.00000  Biso   1.000  C
  C288     1.0000 0.36946  0.17230  0.00000  Biso   1.000  C
  H672     1.0000 0.37550  0.19480  0.00000  Biso   1.000  H
  C289     1.0000 0.00000  0.38475  0.11525  Biso   1.000  C
  H673     1.0000 0.00000  0.40120  0.09880  Biso   1.000  H
  C290     1.0000 0.00000  0.33653  0.16347  Biso   1.000  C
  C291     1.0000 0.00000  0.31088  0.18912  Biso   1.000  C
  C292     1.0000 0.00000  0.26265  0.23735  Biso   1.000  C
  C293     1.0000 0.50000  0.38475  0.61525  Biso   1.000  C
  H674     1.0000 0.50000  0.40120  0.59880  Biso   1.000  H
  C294     1.0000 0.50000  0.33653  0.66347  Biso   1.000  C
  C295     1.0000 0.50000  0.31088  0.68912  Biso   1.000  C
  C296     1.0000 0.50000  0.26265  0.73735  Biso   1.000  C
  C297     1.0000 0.00000  0.61525  0.11525  Biso   1.000  C
  H675     1.0000 0.00000  0.59880  0.09880  Biso   1.000  H
  C298     1.0000 0.00000  0.66347  0.16347  Biso   1.000  C
  C299     1.0000 0.00000  0.68912  0.18912  Biso   1.000  C
  C300     1.0000 0.00000  0.73735  0.23735  Biso   1.000  C
  C301     1.0000 0.50000  0.61525  0.61525  Biso   1.000  C
  H676     1.0000 0.50000  0.59880  0.59880  Biso   1.000  H
  C302     1.0000 0.50000  0.66347  0.66347  Biso   1.000  C
  C303     1.0000 0.50000  0.68912  0.68912  Biso   1.000  C
  C304     1.0000 0.50000  0.73735  0.73735  Biso   1.000  C
  C305     1.0000 0.50000  0.11525  0.11525  Biso   1.000  C
  H677     1.0000 0.50000  0.09880  0.09880  Biso   1.000  H
  C306     1.0000 0.50000  0.16347  0.16347  Biso   1.000  C
  C307     1.0000 0.50000  0.18912  0.18912  Biso   1.000  C
  C308     1.0000 0.50000  0.23735  0.23735  Biso   1.000  C
  C309     1.0000 0.00000  0.38475  0.88475  Biso   1.000  C
  H678     1.0000 0.00000  0.40120  0.90120  Biso   1.000  H
  C310     1.0000 0.00000  0.33653  0.83653  Biso   1.000  C
  C311     1.0000 0.00000  0.31088  0.81088  Biso   1.000  C
  C312     1.0000 0.00000  0.26265  0.76265  Biso   1.000  C
  C313     1.0000 0.50000  0.38475  0.38475  Biso   1.000  C
  H679     1.0000 0.50000  0.40120  0.40120  Biso   1.000  H
  C314     1.0000 0.50000  0.33653  0.33653  Biso   1.000  C
  C315     1.0000 0.50000  0.31088  0.31088  Biso   1.000  C
  C316     1.0000 0.50000  0.26265  0.26265  Biso   1.000  C
  C317     1.0000 0.00000  0.61525  0.88475  Biso   1.000  C
  H680     1.0000 0.00000  0.59880  0.90120  Biso   1.000  H
  C318     1.0000 0.00000  0.66347  0.83653  Biso   1.000  C
  C319     1.0000 0.00000  0.68912  0.81088  Biso   1.000  C
  C320     1.0000 0.00000  0.73735  0.76265  Biso   1.000  C
  C321     1.0000 0.00000  0.11525  0.38475  Biso   1.000  C
  H681     1.0000 0.00000  0.09880  0.40120  Biso   1.000  H
  C322     1.0000 0.00000  0.16347  0.33653  Biso   1.000  C
  C323     1.0000 0.00000  0.18912  0.31088  Biso   1.000  C
  C324     1.0000 0.00000  0.23735  0.26265  Biso   1.000  C
  C325     1.0000 0.50000  0.61525  0.38475  Biso   1.000  C
  H682     1.0000 0.50000  0.59880  0.40120  Biso   1.000  H
  C326     1.0000 0.50000  0.66347  0.33653  Biso   1.000  C
  C327     1.0000 0.50000  0.68912  0.31088  Biso   1.000  C
  C328     1.0000 0.50000  0.73735  0.26265  Biso   1.000  C
  C329     1.0000 0.11525  0.00000  0.38475  Biso   1.000  C
  H683     1.0000 0.09880  0.00000  0.40120  Biso   1.000  H
  C330     1.0000 0.16347  0.00000  0.33653  Biso   1.000  C
  C331     1.0000 0.18912  0.00000  0.31088  Biso   1.000  C
  C332     1.0000 0.23735  0.00000  0.26265  Biso   1.000  C
  C333     1.0000 0.11525  0.50000  0.88475  Biso   1.000  C
  H684     1.0000 0.09880  0.50000  0.90120  Biso   1.000  H
  C334     1.0000 0.16347  0.50000  0.83653  Biso   1.000  C
  C335     1.0000 0.18912  0.50000  0.81088  Biso   1.000  C
  C336     1.0000 0.23735  0.50000  0.76265  Biso   1.000  C
  C337     1.0000 0.11525  0.00000  0.61525  Biso   1.000  C
  H685     1.0000 0.09880  0.00000  0.59880  Biso   1.000  H
  C338     1.0000 0.16347  0.00000  0.66347  Biso   1.000  C
  C339     1.0000 0.18912  0.00000  0.68912  Biso   1.000  C
  C340     1.0000 0.23735  0.00000  0.73735  Biso   1.000  C
  C341     1.0000 0.11525  0.50000  0.11525  Biso   1.000  C
  H686     1.0000 0.09880  0.50000  0.09880  Biso   1.000  H
  C342     1.0000 0.16347  0.50000  0.16347  Biso   1.000  C
  C343     1.0000 0.18912  0.50000  0.18912  Biso   1.000  C
  C344     1.0000 0.23735  0.50000  0.23735  Biso   1.000  C
  C345     1.0000 0.88475  0.00000  0.38475  Biso   1.000  C
  H687     1.0000 0.90120  0.00000  0.40120  Biso   1.000  H
  C346     1.0000 0.83653  0.00000  0.33653  Biso   1.000  C
  C347     1.0000 0.81088  0.00000  0.31088  Biso   1.000  C
  C348     1.0000 0.76265  0.00000  0.26265  Biso   1.000  C
  C349     1.0000 0.88475  0.50000  0.88475  Biso   1.000  C
  H688     1.0000 0.90120  0.50000  0.90120  Biso   1.000  H
  C350     1.0000 0.83653  0.50000  0.83653  Biso   1.000  C
  C351     1.0000 0.81088  0.50000  0.81088  Biso   1.000  C
  C352     1.0000 0.76265  0.50000  0.76265  Biso   1.000  C
  C353     1.0000 0.38475  0.50000  0.38475  Biso   1.000  C
  H689     1.0000 0.40120  0.50000  0.40120  Biso   1.000  H
  C354     1.0000 0.33653  0.50000  0.33653  Biso   1.000  C
  C355     1.0000 0.31088  0.50000  0.31088  Biso   1.000  C
  C356     1.0000 0.26265  0.50000  0.26265  Biso   1.000  C
  C357     1.0000 0.88475  0.00000  0.61525  Biso   1.000  C
  H690     1.0000 0.90120  0.00000  0.59880  Biso   1.000  H
  C358     1.0000 0.83653  0.00000  0.66347  Biso   1.000  C
  C359     1.0000 0.81088  0.00000  0.68912  Biso   1.000  C
  C360     1.0000 0.76265  0.00000  0.73735  Biso   1.000  C
  C361     1.0000 0.88475  0.50000  0.11525  Biso   1.000  C
  H691     1.0000 0.90120  0.50000  0.09880  Biso   1.000  H
  C362     1.0000 0.83653  0.50000  0.16347  Biso   1.000  C
  C363     1.0000 0.81088  0.50000  0.18912  Biso   1.000  C
  C364     1.0000 0.76265  0.50000  0.23735  Biso   1.000  C
  C365     1.0000 0.38475  0.00000  0.11525  Biso   1.000  C
  H692     1.0000 0.40120  0.00000  0.09880  Biso   1.000  H
  C366     1.0000 0.33653  0.00000  0.16347  Biso   1.000  C
  C367     1.0000 0.31088  0.00000  0.18912  Biso   1.000  C
  C368     1.0000 0.26265  0.00000  0.23735  Biso   1.000  C
  C369     1.0000 0.38475  0.11525  0.00000  Biso   1.000  C
  H693     1.0000 0.40120  0.09880  0.00000  Biso   1.000  H
  C370     1.0000 0.33653  0.16347  0.00000  Biso   1.000  C
  C371     1.0000 0.31088  0.18912  0.00000  Biso   1.000  C
  C372     1.0000 0.26265  0.23735  0.00000  Biso   1.000  C
  C373     1.0000 0.38475  0.61525  0.50000  Biso   1.000  C
  H694     1.0000 0.40120  0.59880  0.50000  Biso   1.000  H
  C374     1.0000 0.33653  0.66347  0.50000  Biso   1.000  C
  C375     1.0000 0.31088  0.68912  0.50000  Biso   1.000  C
  C376     1.0000 0.26265  0.73735  0.50000  Biso   1.000  C
  C377     1.0000 0.61525  0.11525  0.00000  Biso   1.000  C
  H695     1.0000 0.59880  0.09880  0.00000  Biso   1.000  H
  C378     1.0000 0.66347  0.16347  0.00000  Biso   1.000  C
  C379     1.0000 0.68912  0.18912  0.00000  Biso   1.000  C
  C380     1.0000 0.73735  0.23735  0.00000  Biso   1.000  C
  C381     1.0000 0.61525  0.61525  0.50000  Biso   1.000  C
  H696     1.0000 0.59880  0.59880  0.50000  Biso   1.000  H
  C382     1.0000 0.66347  0.66347  0.50000  Biso   1.000  C
  C383     1.0000 0.68912  0.68912  0.50000  Biso   1.000  C
  C384     1.0000 0.73735  0.73735  0.50000  Biso   1.000  C
  C385     1.0000 0.11525  0.11525  0.50000  Biso   1.000  C
  H697     1.0000 0.09880  0.09880  0.50000  Biso   1.000  H
  C386     1.0000 0.16347  0.16347  0.50000  Biso   1.000  C
  C387     1.0000 0.18912  0.18912  0.50000  Biso   1.000  C
  C388     1.0000 0.23735  0.23735  0.50000  Biso   1.000  C
  C389     1.0000 0.38475  0.88475  0.00000  Biso   1.000  C
  H698     1.0000 0.40120  0.90120  0.00000  Biso   1.000  H
  C390     1.0000 0.33653  0.83653  0.00000  Biso   1.000  C
  C391     1.0000 0.31088  0.81088  0.00000  Biso   1.000  C
  C392     1.0000 0.26265  0.76265  0.00000  Biso   1.000  C
  C393     1.0000 0.38475  0.38475  0.50000  Biso   1.000  C
  H699     1.0000 0.40120  0.40120  0.50000  Biso   1.000  H
  C394     1.0000 0.33653  0.33653  0.50000  Biso   1.000  C
  C395     1.0000 0.31088  0.31088  0.50000  Biso   1.000  C
  C396     1.0000 0.26265  0.26265  0.50000  Biso   1.000  C
  C397     1.0000 0.61525  0.88475  0.00000  Biso   1.000  C
  H700     1.0000 0.59880  0.90120  0.00000  Biso   1.000  H
  C398     1.0000 0.66347  0.83653  0.00000  Biso   1.000  C
  C399     1.0000 0.68912  0.81088  0.00000  Biso   1.000  C
  C400     1.0000 0.73735  0.76265  0.00000  Biso   1.000  C
  C401     1.0000 0.61525  0.38475  0.50000  Biso   1.000  C
  H701     1.0000 0.59880  0.40120  0.50000  Biso   1.000  H
  C402     1.0000 0.66347  0.33653  0.50000  Biso   1.000  C
  C403     1.0000 0.68912  0.31088  0.50000  Biso   1.000  C
  C404     1.0000 0.73735  0.26265  0.50000  Biso   1.000  C
  C405     1.0000 0.11525  0.38475  0.00000  Biso   1.000  C
  H702     1.0000 0.09880  0.40120  0.00000  Biso   1.000  H
  C406     1.0000 0.16347  0.33653  0.00000  Biso   1.000  C
  C407     1.0000 0.18912  0.31088  0.00000  Biso   1.000  C
  C408     1.0000 0.23735  0.26265  0.00000  Biso   1.000  C
  C409     1.0000 0.38475  0.00000  0.88475  Biso   1.000  C
  H703     1.0000 0.40120  0.00000  0.90120  Biso   1.000  H
  C410     1.0000 0.33653  0.00000  0.83653  Biso   1.000  C
  C411     1.0000 0.31088  0.00000  0.81088  Biso   1.000  C
  C412     1.0000 0.26265  0.00000  0.76265  Biso   1.000  C
  C413     1.0000 0.61525  0.00000  0.88475  Biso   1.000  C
  H704     1.0000 0.59880  0.00000  0.90120  Biso   1.000  H
  C414     1.0000 0.66347  0.00000  0.83653  Biso   1.000  C
  C415     1.0000 0.68912  0.00000  0.81088  Biso   1.000  C
  C416     1.0000 0.73735  0.00000  0.76265  Biso   1.000  C
  C417     1.0000 0.61525  0.50000  0.38475  Biso   1.000  C
  H705     1.0000 0.59880  0.50000  0.40120  Biso   1.000  H
  C418     1.0000 0.66347  0.50000  0.33653  Biso   1.000  C
  C419     1.0000 0.68912  0.50000  0.31088  Biso   1.000  C
  C420     1.0000 0.73735  0.50000  0.26265  Biso   1.000  C
  C421     1.0000 0.38475  0.50000  0.61525  Biso   1.000  C
  H706     1.0000 0.40120  0.50000  0.59880  Biso   1.000  H
  C422     1.0000 0.33653  0.50000  0.66347  Biso   1.000  C
  C423     1.0000 0.31088  0.50000  0.68912  Biso   1.000  C
  C424     1.0000 0.26265  0.50000  0.73735  Biso   1.000  C
  C425     1.0000 0.61525  0.00000  0.11525  Biso   1.000  C
  H707     1.0000 0.59880  0.00000  0.09880  Biso   1.000  H
  C426     1.0000 0.66347  0.00000  0.16347  Biso   1.000  C
  C427     1.0000 0.68912  0.00000  0.18912  Biso   1.000  C
  C428     1.0000 0.73735  0.00000  0.23735  Biso   1.000  C
  C429     1.0000 0.61525  0.50000  0.61525  Biso   1.000  C
  H708     1.0000 0.59880  0.50000  0.59880  Biso   1.000  H
  C430     1.0000 0.66347  0.50000  0.66347  Biso   1.000  C
  C431     1.0000 0.68912  0.50000  0.68912  Biso   1.000  C
  C432     1.0000 0.73735  0.50000  0.73735  Biso   1.000  C
  C433     1.0000 0.00000  0.11525  0.61525  Biso   1.000  C
  H709     1.0000 0.00000  0.09880  0.59880  Biso   1.000  H
  C434     1.0000 0.00000  0.16347  0.66347  Biso   1.000  C
  C435     1.0000 0.00000  0.18912  0.68912  Biso   1.000  C
  C436     1.0000 0.00000  0.23735  0.73735  Biso   1.000  C
  C437     1.0000 0.50000  0.11525  0.88475  Biso   1.000  C
  H710     1.0000 0.50000  0.09880  0.90120  Biso   1.000  H
  C438     1.0000 0.50000  0.16347  0.83653  Biso   1.000  C
  C439     1.0000 0.50000  0.18912  0.81088  Biso   1.000  C
  C440     1.0000 0.50000  0.23735  0.76265  Biso   1.000  C
  C441     1.0000 0.00000  0.88475  0.61525  Biso   1.000  C
  H711     1.0000 0.00000  0.90120  0.59880  Biso   1.000  H
  C442     1.0000 0.00000  0.83653  0.66347  Biso   1.000  C
  C443     1.0000 0.00000  0.81088  0.68912  Biso   1.000  C
  C444     1.0000 0.00000  0.76265  0.73735  Biso   1.000  C
  C445     1.0000 0.50000  0.88475  0.11525  Biso   1.000  C
  H712     1.0000 0.50000  0.90120  0.09880  Biso   1.000  H
  C446     1.0000 0.50000  0.83653  0.16347  Biso   1.000  C
  C447     1.0000 0.50000  0.81088  0.18912  Biso   1.000  C
  C448     1.0000 0.50000  0.76265  0.23735  Biso   1.000  C
  C449     1.0000 0.00000  0.88475  0.38475  Biso   1.000  C
  H713     1.0000 0.00000  0.90120  0.40120  Biso   1.000  H
  C450     1.0000 0.00000  0.83653  0.33653  Biso   1.000  C
  C451     1.0000 0.00000  0.81088  0.31088  Biso   1.000  C
  C452     1.0000 0.00000  0.76265  0.26265  Biso   1.000  C
  C453     1.0000 0.50000  0.88475  0.88475  Biso   1.000  C
  H714     1.0000 0.50000  0.90120  0.90120  Biso   1.000  H
  C454     1.0000 0.50000  0.83653  0.83653  Biso   1.000  C
  C455     1.0000 0.50000  0.81088  0.81088  Biso   1.000  C
  C456     1.0000 0.50000  0.76265  0.76265  Biso   1.000  C
  C457     1.0000 0.11525  0.88475  0.50000  Biso   1.000  C
  H715     1.0000 0.09880  0.90120  0.50000  Biso   1.000  H
  C458     1.0000 0.16347  0.83653  0.50000  Biso   1.000  C
  C459     1.0000 0.18912  0.81088  0.50000  Biso   1.000  C
  C460     1.0000 0.23735  0.76265  0.50000  Biso   1.000  C
  C461     1.0000 0.11525  0.61525  0.00000  Biso   1.000  C
  H716     1.0000 0.09880  0.59880  0.00000  Biso   1.000  H
  C462     1.0000 0.16347  0.66347  0.00000  Biso   1.000  C
  C463     1.0000 0.18912  0.68912  0.00000  Biso   1.000  C
  C464     1.0000 0.23735  0.73735  0.00000  Biso   1.000  C
  C465     1.0000 0.88475  0.38475  0.00000  Biso   1.000  C
  H717     1.0000 0.90120  0.40120  0.00000  Biso   1.000  H
  C466     1.0000 0.83653  0.33653  0.00000  Biso   1.000  C
  C467     1.0000 0.81088  0.31088  0.00000  Biso   1.000  C
  C468     1.0000 0.76265  0.26265  0.00000  Biso   1.000  C
  C469     1.0000 0.88475  0.88475  0.50000  Biso   1.000  C
  H718     1.0000 0.90120  0.90120  0.50000  Biso   1.000  H
  C470     1.0000 0.83653  0.83653  0.50000  Biso   1.000  C
  C471     1.0000 0.81088  0.81088  0.50000  Biso   1.000  C
  C472     1.0000 0.76265  0.76265  0.50000  Biso   1.000  C
  C473     1.0000 0.88475  0.61525  0.00000  Biso   1.000  C
  H719     1.0000 0.90120  0.59880  0.00000  Biso   1.000  H
  C474     1.0000 0.83653  0.66347  0.00000  Biso   1.000  C
  C475     1.0000 0.81088  0.68912  0.00000  Biso   1.000  C
  C476     1.0000 0.76265  0.73735  0.00000  Biso   1.000  C
  C477     1.0000 0.88475  0.11525  0.50000  Biso   1.000  C
  H720     1.0000 0.90120  0.09880  0.50000  Biso   1.000  H
  C478     1.0000 0.83653  0.16347  0.50000  Biso   1.000  C
  C479     1.0000 0.81088  0.18912  0.50000  Biso   1.000  C
  C480     1.0000 0.76265  0.23735  0.50000  Biso   1.000  C
  C481     1.0000 0.02953  0.29882  0.20118  Biso   1.000  C
  C482     1.0000 0.02953  0.27471  0.22529  Biso   1.000  C
  H721     1.0000 0.04970  0.26650  0.23350  Biso   1.000  H
  C483     1.0000 0.06047  0.31315  0.18685  Biso   1.000  C
  C484     1.0000 0.52953  0.29882  0.70118  Biso   1.000  C
  C485     1.0000 0.52953  0.27471  0.72529  Biso   1.000  C
  H722     1.0000 0.54970  0.26650  0.73350  Biso   1.000  H
  C486     1.0000 0.56047  0.31315  0.68685  Biso   1.000  C
  C487     1.0000 0.97047  0.70118  0.20118  Biso   1.000  C
  C488     1.0000 0.97047  0.72529  0.22529  Biso   1.000  C
  H723     1.0000 0.95030  0.73350  0.23350  Biso   1.000  H
  C489     1.0000 0.93953  0.68685  0.18685  Biso   1.000  C
  C490     1.0000 0.47047  0.70118  0.70118  Biso   1.000  C
  C491     1.0000 0.47047  0.72529  0.72529  Biso   1.000  C
  H724     1.0000 0.45030  0.73350  0.73350  Biso   1.000  H
  C492     1.0000 0.43953  0.68685  0.68685  Biso   1.000  C
  C493     1.0000 0.47047  0.20118  0.20118  Biso   1.000  C
  C494     1.0000 0.47047  0.22529  0.22529  Biso   1.000  C
  H725     1.0000 0.45030  0.23350  0.23350  Biso   1.000  H
  C495     1.0000 0.43953  0.18685  0.18685  Biso   1.000  C
  C496     1.0000 0.97047  0.29882  0.79882  Biso   1.000  C
  C497     1.0000 0.97047  0.27471  0.77471  Biso   1.000  C
  H726     1.0000 0.95030  0.26650  0.76650  Biso   1.000  H
  C498     1.0000 0.93953  0.31315  0.81315  Biso   1.000  C
  C499     1.0000 0.47047  0.29882  0.29882  Biso   1.000  C
  C500     1.0000 0.47047  0.27471  0.27471  Biso   1.000  C
  H727     1.0000 0.45030  0.26650  0.26650  Biso   1.000  H
  C501     1.0000 0.43953  0.31315  0.31315  Biso   1.000  C
  C502     1.0000 0.02953  0.70118  0.79882  Biso   1.000  C
  C503     1.0000 0.02953  0.72529  0.77471  Biso   1.000  C
  H728     1.0000 0.04970  0.73350  0.76650  Biso   1.000  H
  C504     1.0000 0.06047  0.68685  0.81315  Biso   1.000  C
  C505     1.0000 0.02953  0.20118  0.29882  Biso   1.000  C
  C506     1.0000 0.02953  0.22529  0.27471  Biso   1.000  C
  H729     1.0000 0.04970  0.23350  0.26650  Biso   1.000  H
  C507     1.0000 0.06047  0.18685  0.31315  Biso   1.000  C
  C508     1.0000 0.52953  0.70118  0.29882  Biso   1.000  C
  C509     1.0000 0.52953  0.72529  0.27471  Biso   1.000  C
  H730     1.0000 0.54970  0.73350  0.26650  Biso   1.000  H
  C510     1.0000 0.56047  0.68685  0.31315  Biso   1.000  C
  C511     1.0000 0.20118  0.02953  0.29882  Biso   1.000  C
  C512     1.0000 0.22529  0.02953  0.27471  Biso   1.000  C
  H731     1.0000 0.23350  0.04970  0.26650  Biso   1.000  H
  C513     1.0000 0.18685  0.06047  0.31315  Biso   1.000  C
  C514     1.0000 0.20118  0.52953  0.79882  Biso   1.000  C
  C515     1.0000 0.22529  0.52953  0.77471  Biso   1.000  C
  H732     1.0000 0.23350  0.54970  0.76650  Biso   1.000  H
  C516     1.0000 0.18685  0.56047  0.81315  Biso   1.000  C
  C517     1.0000 0.20118  0.97047  0.70118  Biso   1.000  C
  C518     1.0000 0.22529  0.97047  0.72529  Biso   1.000  C
  H733     1.0000 0.23350  0.95030  0.73350  Biso   1.000  H
  C519     1.0000 0.18685  0.93953  0.68685  Biso   1.000  C
  C520     1.0000 0.20118  0.47047  0.20118  Biso   1.000  C
  C521     1.0000 0.22529  0.47047  0.22529  Biso   1.000  C
  H734     1.0000 0.23350  0.45030  0.23350  Biso   1.000  H
  C522     1.0000 0.18685  0.43953  0.18685  Biso   1.000  C
  C523     1.0000 0.79882  0.97047  0.29882  Biso   1.000  C
  C524     1.0000 0.77471  0.97047  0.27471  Biso   1.000  C
  H735     1.0000 0.76650  0.95030  0.26650  Biso   1.000  H
  C525     1.0000 0.81315  0.93953  0.31315  Biso   1.000  C
  C526     1.0000 0.79882  0.47047  0.79882  Biso   1.000  C
  C527     1.0000 0.77471  0.47047  0.77471  Biso   1.000  C
  H736     1.0000 0.76650  0.45030  0.76650  Biso   1.000  H
  C528     1.0000 0.81315  0.43953  0.81315  Biso   1.000  C
  C529     1.0000 0.29882  0.47047  0.29882  Biso   1.000  C
  C530     1.0000 0.27471  0.47047  0.27471  Biso   1.000  C
  H737     1.0000 0.26650  0.45030  0.26650  Biso   1.000  H
  C531     1.0000 0.31315  0.43953  0.31315  Biso   1.000  C
  C532     1.0000 0.79882  0.02953  0.70118  Biso   1.000  C
  C533     1.0000 0.77471  0.02953  0.72529  Biso   1.000  C
  H738     1.0000 0.76650  0.04970  0.73350  Biso   1.000  H
  C534     1.0000 0.81315  0.06047  0.68685  Biso   1.000  C
  C535     1.0000 0.79882  0.52953  0.20118  Biso   1.000  C
  C536     1.0000 0.77471  0.52953  0.22529  Biso   1.000  C
  H739     1.0000 0.76650  0.54970  0.23350  Biso   1.000  H
  C537     1.0000 0.81315  0.56047  0.18685  Biso   1.000  C
  C538     1.0000 0.29882  0.02953  0.20118  Biso   1.000  C
  C539     1.0000 0.27471  0.02953  0.22529  Biso   1.000  C
  H740     1.0000 0.26650  0.04970  0.23350  Biso   1.000  H
  C540     1.0000 0.31315  0.06047  0.18685  Biso   1.000  C
  C541     1.0000 0.29882  0.20118  0.02953  Biso   1.000  C
  C542     1.0000 0.27471  0.22529  0.02953  Biso   1.000  C
  H741     1.0000 0.26650  0.23350  0.04970  Biso   1.000  H
  C543     1.0000 0.31315  0.18685  0.06047  Biso   1.000  C
  C544     1.0000 0.29882  0.70118  0.52953  Biso   1.000  C
  C545     1.0000 0.27471  0.72529  0.52953  Biso   1.000  C
  H742     1.0000 0.26650  0.73350  0.54970  Biso   1.000  H
  C546     1.0000 0.31315  0.68685  0.56047  Biso   1.000  C
  C547     1.0000 0.70118  0.20118  0.97047  Biso   1.000  C
  C548     1.0000 0.72529  0.22529  0.97047  Biso   1.000  C
  H743     1.0000 0.73350  0.23350  0.95030  Biso   1.000  H
  C549     1.0000 0.68685  0.18685  0.93953  Biso   1.000  C
  C550     1.0000 0.70118  0.70118  0.47047  Biso   1.000  C
  C551     1.0000 0.72529  0.72529  0.47047  Biso   1.000  C
  H744     1.0000 0.73350  0.73350  0.45030  Biso   1.000  H
  C552     1.0000 0.68685  0.68685  0.43953  Biso   1.000  C
  C553     1.0000 0.20118  0.20118  0.47047  Biso   1.000  C
  C554     1.0000 0.22529  0.22529  0.47047  Biso   1.000  C
  H745     1.0000 0.23350  0.23350  0.45030  Biso   1.000  H
  C555     1.0000 0.18685  0.18685  0.43953  Biso   1.000  C
  C556     1.0000 0.29882  0.79882  0.97047  Biso   1.000  C
  C557     1.0000 0.27471  0.77471  0.97047  Biso   1.000  C
  H746     1.0000 0.26650  0.76650  0.95030  Biso   1.000  H
  C558     1.0000 0.31315  0.81315  0.93953  Biso   1.000  C
  C559     1.0000 0.29882  0.29882  0.47047  Biso   1.000  C
  C560     1.0000 0.27471  0.27471  0.47047  Biso   1.000  C
  H747     1.0000 0.26650  0.26650  0.45030  Biso   1.000  H
  C561     1.0000 0.31315  0.31315  0.43953  Biso   1.000  C
  C562     1.0000 0.70118  0.79882  0.02953  Biso   1.000  C
  C563     1.0000 0.72529  0.77471  0.02953  Biso   1.000  C
  H748     1.0000 0.73350  0.76650  0.04970  Biso   1.000  H
  C564     1.0000 0.68685  0.81315  0.06047  Biso   1.000  C
  C565     1.0000 0.70118  0.29882  0.52953  Biso   1.000  C
  C566     1.0000 0.72529  0.27471  0.52953  Biso   1.000  C
  H749     1.0000 0.73350  0.26650  0.54970  Biso   1.000  H
  C567     1.0000 0.68685  0.31315  0.56047  Biso   1.000  C
  C568     1.0000 0.20118  0.29882  0.02953  Biso   1.000  C
  C569     1.0000 0.22529  0.27471  0.02953  Biso   1.000  C
  H750     1.0000 0.23350  0.26650  0.04970  Biso   1.000  H
  C570     1.0000 0.18685  0.31315  0.06047  Biso   1.000  C
  C571     1.0000 0.29882  0.02953  0.79882  Biso   1.000  C
  C572     1.0000 0.27471  0.02953  0.77471  Biso   1.000  C
  H751     1.0000 0.26650  0.04970  0.76650  Biso   1.000  H
  C573     1.0000 0.31315  0.06047  0.81315  Biso   1.000  C
  C574     1.0000 0.29882  0.52953  0.29882  Biso   1.000  C
  C575     1.0000 0.27471  0.52953  0.27471  Biso   1.000  C
  H752     1.0000 0.26650  0.54970  0.26650  Biso   1.000  H
  C576     1.0000 0.31315  0.56047  0.31315  Biso   1.000  C
  C577     1.0000 0.70118  0.97047  0.79882  Biso   1.000  C
  C578     1.0000 0.72529  0.97047  0.77471  Biso   1.000  C
  H753     1.0000 0.73350  0.95030  0.76650  Biso   1.000  H
  C579     1.0000 0.68685  0.93953  0.81315  Biso   1.000  C
  C580     1.0000 0.70118  0.47047  0.29882  Biso   1.000  C
  C581     1.0000 0.72529  0.47047  0.27471  Biso   1.000  C
  H754     1.0000 0.73350  0.45030  0.26650  Biso   1.000  H
  C582     1.0000 0.68685  0.43953  0.31315  Biso   1.000  C
  C583     1.0000 0.20118  0.97047  0.29882  Biso   1.000  C
  C584     1.0000 0.22529  0.97047  0.27471  Biso   1.000  C
  H755     1.0000 0.23350  0.95030  0.26650  Biso   1.000  H
  C585     1.0000 0.18685  0.93953  0.31315  Biso   1.000  C
  C586     1.0000 0.29882  0.97047  0.20118  Biso   1.000  C
  C587     1.0000 0.27471  0.97047  0.22529  Biso   1.000  C
  H756     1.0000 0.26650  0.95030  0.23350  Biso   1.000  H
  C588     1.0000 0.31315  0.93953  0.18685  Biso   1.000  C
  C589     1.0000 0.29882  0.47047  0.70118  Biso   1.000  C
  C590     1.0000 0.27471  0.47047  0.72529  Biso   1.000  C
  H757     1.0000 0.26650  0.45030  0.73350  Biso   1.000  H
  C591     1.0000 0.31315  0.43953  0.68685  Biso   1.000  C
  C592     1.0000 0.70118  0.02953  0.20118  Biso   1.000  C
  C593     1.0000 0.72529  0.02953  0.22529  Biso   1.000  C
  H758     1.0000 0.73350  0.04970  0.23350  Biso   1.000  H
  C594     1.0000 0.68685  0.06047  0.18685  Biso   1.000  C
  C595     1.0000 0.70118  0.52953  0.70118  Biso   1.000  C
  C596     1.0000 0.72529  0.52953  0.72529  Biso   1.000  C
  H759     1.0000 0.73350  0.54970  0.73350  Biso   1.000  H
  C597     1.0000 0.68685  0.56047  0.68685  Biso   1.000  C
  C598     1.0000 0.20118  0.52953  0.20118  Biso   1.000  C
  C599     1.0000 0.22529  0.52953  0.22529  Biso   1.000  C
  H760     1.0000 0.23350  0.54970  0.23350  Biso   1.000  H
  C600     1.0000 0.18685  0.56047  0.18685  Biso   1.000  C
  C601     1.0000 0.02953  0.20118  0.70118  Biso   1.000  C
  C602     1.0000 0.02953  0.22529  0.72529  Biso   1.000  C
  H761     1.0000 0.04970  0.23350  0.73350  Biso   1.000  H
  C603     1.0000 0.06047  0.18685  0.68685  Biso   1.000  C
  C604     1.0000 0.52953  0.20118  0.20118  Biso   1.000  C
  C605     1.0000 0.52953  0.22529  0.22529  Biso   1.000  C
  H762     1.0000 0.54970  0.23350  0.23350  Biso   1.000  H
  C606     1.0000 0.56047  0.18685  0.18685  Biso   1.000  C
  C607     1.0000 0.97047  0.20118  0.29882  Biso   1.000  C
  C608     1.0000 0.97047  0.22529  0.27471  Biso   1.000  C
  H763     1.0000 0.95030  0.23350  0.26650  Biso   1.000  H
  C609     1.0000 0.93953  0.18685  0.31315  Biso   1.000  C
  C610     1.0000 0.47047  0.20118  0.79882  Biso   1.000  C
  C611     1.0000 0.47047  0.22529  0.77471  Biso   1.000  C
  H764     1.0000 0.45030  0.23350  0.76650  Biso   1.000  H
  C612     1.0000 0.43953  0.18685  0.81315  Biso   1.000  C
  C613     1.0000 0.97047  0.79882  0.70118  Biso   1.000  C
  C614     1.0000 0.97047  0.77471  0.72529  Biso   1.000  C
  H765     1.0000 0.95030  0.76650  0.73350  Biso   1.000  H
  C615     1.0000 0.93953  0.81315  0.68685  Biso   1.000  C
  C616     1.0000 0.97047  0.29882  0.20118  Biso   1.000  C
  C617     1.0000 0.97047  0.27471  0.22529  Biso   1.000  C
  H766     1.0000 0.95030  0.26650  0.23350  Biso   1.000  H
  C618     1.0000 0.93953  0.31315  0.18685  Biso   1.000  C
  C619     1.0000 0.47047  0.79882  0.20118  Biso   1.000  C
  C620     1.0000 0.47047  0.77471  0.22529  Biso   1.000  C
  H767     1.0000 0.45030  0.76650  0.23350  Biso   1.000  H
  C621     1.0000 0.43953  0.81315  0.18685  Biso   1.000  C
  C622     1.0000 0.02953  0.79882  0.29882  Biso   1.000  C
  C623     1.0000 0.02953  0.77471  0.27471  Biso   1.000  C
  H768     1.0000 0.04970  0.76650  0.26650  Biso   1.000  H
  C624     1.0000 0.06047  0.81315  0.31315  Biso   1.000  C
  C625     1.0000 0.52953  0.79882  0.79882  Biso   1.000  C
  C626     1.0000 0.52953  0.77471  0.77471  Biso   1.000  C
  H769     1.0000 0.54970  0.76650  0.76650  Biso   1.000  H
  C627     1.0000 0.56047  0.81315  0.81315  Biso   1.000  C
  C628     1.0000 0.52953  0.29882  0.29882  Biso   1.000  C
  C629     1.0000 0.52953  0.27471  0.27471  Biso   1.000  C
  H770     1.0000 0.54970  0.26650  0.26650  Biso   1.000  H
  C630     1.0000 0.56047  0.31315  0.31315  Biso   1.000  C
  C631     1.0000 0.20118  0.29882  0.97047  Biso   1.000  C
  C632     1.0000 0.22529  0.27471  0.97047  Biso   1.000  C
  H771     1.0000 0.23350  0.26650  0.95030  Biso   1.000  H
  C633     1.0000 0.18685  0.31315  0.93953  Biso   1.000  C
  C634     1.0000 0.20118  0.79882  0.47047  Biso   1.000  C
  C635     1.0000 0.22529  0.77471  0.47047  Biso   1.000  C
  H772     1.0000 0.23350  0.76650  0.45030  Biso   1.000  H
  C636     1.0000 0.18685  0.81315  0.43953  Biso   1.000  C
  C637     1.0000 0.20118  0.70118  0.02953  Biso   1.000  C
  C638     1.0000 0.22529  0.72529  0.02953  Biso   1.000  C
  H773     1.0000 0.23350  0.73350  0.04970  Biso   1.000  H
  C639     1.0000 0.18685  0.68685  0.06047  Biso   1.000  C
  C640     1.0000 0.20118  0.20118  0.52953  Biso   1.000  C
  C641     1.0000 0.22529  0.22529  0.52953  Biso   1.000  C
  H774     1.0000 0.23350  0.23350  0.54970  Biso   1.000  H
  C642     1.0000 0.18685  0.18685  0.56047  Biso   1.000  C
  C643     1.0000 0.79882  0.29882  0.02953  Biso   1.000  C
  C644     1.0000 0.77471  0.27471  0.02953  Biso   1.000  C
  H775     1.0000 0.76650  0.26650  0.04970  Biso   1.000  H
  C645     1.0000 0.81315  0.31315  0.06047  Biso   1.000  C
  C646     1.0000 0.79882  0.79882  0.52953  Biso   1.000  C
  C647     1.0000 0.77471  0.77471  0.52953  Biso   1.000  C
  H776     1.0000 0.76650  0.76650  0.54970  Biso   1.000  H
  C648     1.0000 0.81315  0.81315  0.56047  Biso   1.000  C
  C649     1.0000 0.29882  0.29882  0.52953  Biso   1.000  C
  C650     1.0000 0.27471  0.27471  0.52953  Biso   1.000  C
  H777     1.0000 0.26650  0.26650  0.54970  Biso   1.000  H
  C651     1.0000 0.31315  0.31315  0.56047  Biso   1.000  C
  C652     1.0000 0.79882  0.70118  0.97047  Biso   1.000  C
  C653     1.0000 0.77471  0.72529  0.97047  Biso   1.000  C
  H778     1.0000 0.76650  0.73350  0.95030  Biso   1.000  H
  C654     1.0000 0.81315  0.68685  0.93953  Biso   1.000  C
  C655     1.0000 0.79882  0.20118  0.47047  Biso   1.000  C
  C656     1.0000 0.77471  0.22529  0.47047  Biso   1.000  C
  H779     1.0000 0.76650  0.23350  0.45030  Biso   1.000  H
  C657     1.0000 0.81315  0.18685  0.43953  Biso   1.000  C
  C658     1.0000 0.29882  0.20118  0.97047  Biso   1.000  C
  C659     1.0000 0.27471  0.22529  0.97047  Biso   1.000  C
  H780     1.0000 0.26650  0.23350  0.95030  Biso   1.000  H
  C660     1.0000 0.31315  0.18685  0.93953  Biso   1.000  C
  C661     1.0000 0.97047  0.70118  0.79882  Biso   1.000  C
  C662     1.0000 0.97047  0.72529  0.77471  Biso   1.000  C
  H781     1.0000 0.95030  0.73350  0.76650  Biso   1.000  H
  C663     1.0000 0.93953  0.68685  0.81315  Biso   1.000  C
  C664     1.0000 0.47047  0.70118  0.29882  Biso   1.000  C
  C665     1.0000 0.47047  0.72529  0.27471  Biso   1.000  C
  H782     1.0000 0.45030  0.73350  0.26650  Biso   1.000  H
  C666     1.0000 0.43953  0.68685  0.31315  Biso   1.000  C
  C667     1.0000 0.02953  0.29882  0.79882  Biso   1.000  C
  C668     1.0000 0.02953  0.27471  0.77471  Biso   1.000  C
  H783     1.0000 0.04970  0.26650  0.76650  Biso   1.000  H
  C669     1.0000 0.06047  0.31315  0.81315  Biso   1.000  C
  C670     1.0000 0.02953  0.70118  0.20118  Biso   1.000  C
  C671     1.0000 0.02953  0.72529  0.22529  Biso   1.000  C
  H784     1.0000 0.04970  0.73350  0.23350  Biso   1.000  H
  C672     1.0000 0.06047  0.68685  0.18685  Biso   1.000  C
  C673     1.0000 0.52953  0.70118  0.70118  Biso   1.000  C
  C674     1.0000 0.52953  0.72529  0.72529  Biso   1.000  C
  H785     1.0000 0.54970  0.73350  0.73350  Biso   1.000  H
  C675     1.0000 0.56047  0.68685  0.68685  Biso   1.000  C
  C676     1.0000 0.47047  0.29882  0.70118  Biso   1.000  C
  C677     1.0000 0.47047  0.27471  0.72529  Biso   1.000  C
  H786     1.0000 0.45030  0.26650  0.73350  Biso   1.000  H
  C678     1.0000 0.43953  0.31315  0.68685  Biso   1.000  C
  C679     1.0000 0.79882  0.97047  0.70118  Biso   1.000  C
  C680     1.0000 0.77471  0.97047  0.72529  Biso   1.000  C
  H787     1.0000 0.76650  0.95030  0.73350  Biso   1.000  H
  C681     1.0000 0.81315  0.93953  0.68685  Biso   1.000  C
  C682     1.0000 0.79882  0.47047  0.20118  Biso   1.000  C
  C683     1.0000 0.77471  0.47047  0.22529  Biso   1.000  C
  H788     1.0000 0.76650  0.45030  0.23350  Biso   1.000  H
  C684     1.0000 0.81315  0.43953  0.18685  Biso   1.000  C
  C685     1.0000 0.79882  0.02953  0.29882  Biso   1.000  C
  C686     1.0000 0.77471  0.02953  0.27471  Biso   1.000  C
  H789     1.0000 0.76650  0.04970  0.26650  Biso   1.000  H
  C687     1.0000 0.81315  0.06047  0.31315  Biso   1.000  C
  C688     1.0000 0.79882  0.52953  0.79882  Biso   1.000  C
  C689     1.0000 0.77471  0.52953  0.77471  Biso   1.000  C
  H790     1.0000 0.76650  0.54970  0.76650  Biso   1.000  H
  C690     1.0000 0.81315  0.56047  0.81315  Biso   1.000  C
  C691     1.0000 0.20118  0.02953  0.70118  Biso   1.000  C
  C692     1.0000 0.22529  0.02953  0.72529  Biso   1.000  C
  H791     1.0000 0.23350  0.04970  0.73350  Biso   1.000  H
  C693     1.0000 0.18685  0.06047  0.68685  Biso   1.000  C
  C694     1.0000 0.20118  0.47047  0.79882  Biso   1.000  C
  C695     1.0000 0.22529  0.47047  0.77471  Biso   1.000  C
  H792     1.0000 0.23350  0.45030  0.76650  Biso   1.000  H
  C696     1.0000 0.18685  0.43953  0.81315  Biso   1.000  C
  C697     1.0000 0.70118  0.79882  0.97047  Biso   1.000  C
  C698     1.0000 0.72529  0.77471  0.97047  Biso   1.000  C
  H793     1.0000 0.73350  0.76650  0.95030  Biso   1.000  H
  C699     1.0000 0.68685  0.81315  0.93953  Biso   1.000  C
  C700     1.0000 0.70118  0.29882  0.47047  Biso   1.000  C
  C701     1.0000 0.72529  0.27471  0.47047  Biso   1.000  C
  H794     1.0000 0.73350  0.26650  0.45030  Biso   1.000  H
  C702     1.0000 0.68685  0.31315  0.43953  Biso   1.000  C
  C703     1.0000 0.29882  0.79882  0.02953  Biso   1.000  C
  C704     1.0000 0.27471  0.77471  0.02953  Biso   1.000  C
  H795     1.0000 0.26650  0.76650  0.04970  Biso   1.000  H
  C705     1.0000 0.31315  0.81315  0.06047  Biso   1.000  C
  C706     1.0000 0.70118  0.20118  0.02953  Biso   1.000  C
  C707     1.0000 0.72529  0.22529  0.02953  Biso   1.000  C
  H796     1.0000 0.73350  0.23350  0.04970  Biso   1.000  H
  C708     1.0000 0.68685  0.18685  0.06047  Biso   1.000  C
  C709     1.0000 0.70118  0.70118  0.52953  Biso   1.000  C
  C710     1.0000 0.72529  0.72529  0.52953  Biso   1.000  C
  H797     1.0000 0.73350  0.73350  0.54970  Biso   1.000  H
  C711     1.0000 0.68685  0.68685  0.56047  Biso   1.000  C
  C712     1.0000 0.29882  0.70118  0.47047  Biso   1.000  C
  C713     1.0000 0.27471  0.72529  0.47047  Biso   1.000  C
  H798     1.0000 0.26650  0.73350  0.45030  Biso   1.000  H
  C714     1.0000 0.31315  0.68685  0.43953  Biso   1.000  C
  C715     1.0000 0.70118  0.97047  0.20118  Biso   1.000  C
  C716     1.0000 0.72529  0.97047  0.22529  Biso   1.000  C
  H799     1.0000 0.73350  0.95030  0.23350  Biso   1.000  H
  C717     1.0000 0.68685  0.93953  0.18685  Biso   1.000  C
  C718     1.0000 0.70118  0.47047  0.70118  Biso   1.000  C
  C719     1.0000 0.72529  0.47047  0.72529  Biso   1.000  C
  H800     1.0000 0.73350  0.45030  0.73350  Biso   1.000  H
  C720     1.0000 0.68685  0.43953  0.68685  Biso   1.000  C
  C721     1.0000 0.29882  0.52953  0.70118  Biso   1.000  C
  C722     1.0000 0.27471  0.52953  0.72529  Biso   1.000  C
  H801     1.0000 0.26650  0.54970  0.73350  Biso   1.000  H
  C723     1.0000 0.31315  0.56047  0.68685  Biso   1.000  C
  C724     1.0000 0.70118  0.02953  0.79882  Biso   1.000  C
  C725     1.0000 0.72529  0.02953  0.77471  Biso   1.000  C
  H802     1.0000 0.73350  0.04970  0.76650  Biso   1.000  H
  C726     1.0000 0.68685  0.06047  0.81315  Biso   1.000  C
  C727     1.0000 0.70118  0.52953  0.29882  Biso   1.000  C
  C728     1.0000 0.72529  0.52953  0.27471  Biso   1.000  C
  H803     1.0000 0.73350  0.54970  0.26650  Biso   1.000  H
  C729     1.0000 0.68685  0.56047  0.31315  Biso   1.000  C
  C730     1.0000 0.29882  0.97047  0.79882  Biso   1.000  C
  C731     1.0000 0.27471  0.97047  0.77471  Biso   1.000  C
  H804     1.0000 0.26650  0.95030  0.76650  Biso   1.000  H
  C732     1.0000 0.31315  0.93953  0.81315  Biso   1.000  C
  C733     1.0000 0.97047  0.79882  0.29882  Biso   1.000  C
  C734     1.0000 0.97047  0.77471  0.27471  Biso   1.000  C
  H805     1.0000 0.95030  0.76650  0.26650  Biso   1.000  H
  C735     1.0000 0.93953  0.81315  0.31315  Biso   1.000  C
  C736     1.0000 0.47047  0.79882  0.79882  Biso   1.000  C
  C737     1.0000 0.47047  0.77471  0.77471  Biso   1.000  C
  H806     1.0000 0.45030  0.76650  0.76650  Biso   1.000  H
  C738     1.0000 0.43953  0.81315  0.81315  Biso   1.000  C
  C739     1.0000 0.02953  0.79882  0.70118  Biso   1.000  C
  C740     1.0000 0.02953  0.77471  0.72529  Biso   1.000  C
  H807     1.0000 0.04970  0.76650  0.73350  Biso   1.000  H
  C741     1.0000 0.06047  0.81315  0.68685  Biso   1.000  C
  C742     1.0000 0.52953  0.79882  0.20118  Biso   1.000  C
  C743     1.0000 0.52953  0.77471  0.22529  Biso   1.000  C
  H808     1.0000 0.54970  0.76650  0.23350  Biso   1.000  H
  C744     1.0000 0.56047  0.81315  0.18685  Biso   1.000  C
  C745     1.0000 0.52953  0.20118  0.79882  Biso   1.000  C
  C746     1.0000 0.52953  0.22529  0.77471  Biso   1.000  C
  H809     1.0000 0.54970  0.23350  0.76650  Biso   1.000  H
  C747     1.0000 0.56047  0.18685  0.81315  Biso   1.000  C
  C748     1.0000 0.97047  0.20118  0.70118  Biso   1.000  C
  C749     1.0000 0.97047  0.22529  0.72529  Biso   1.000  C
  H810     1.0000 0.95030  0.23350  0.73350  Biso   1.000  H
  C750     1.0000 0.93953  0.18685  0.68685  Biso   1.000  C
  C751     1.0000 0.79882  0.70118  0.02953  Biso   1.000  C
  C752     1.0000 0.77471  0.72529  0.02953  Biso   1.000  C
  H811     1.0000 0.76650  0.73350  0.04970  Biso   1.000  H
  C753     1.0000 0.81315  0.68685  0.06047  Biso   1.000  C
  C754     1.0000 0.79882  0.20118  0.52953  Biso   1.000  C
  C755     1.0000 0.77471  0.22529  0.52953  Biso   1.000  C
  H812     1.0000 0.76650  0.23350  0.54970  Biso   1.000  H
  C756     1.0000 0.81315  0.18685  0.56047  Biso   1.000  C
  C757     1.0000 0.79882  0.29882  0.97047  Biso   1.000  C
  C758     1.0000 0.77471  0.27471  0.97047  Biso   1.000  C
  H813     1.0000 0.76650  0.26650  0.95030  Biso   1.000  H
  C759     1.0000 0.81315  0.31315  0.93953  Biso   1.000  C
  C760     1.0000 0.79882  0.79882  0.47047  Biso   1.000  C
  C761     1.0000 0.77471  0.77471  0.47047  Biso   1.000  C
  H814     1.0000 0.76650  0.76650  0.45030  Biso   1.000  H
  C762     1.0000 0.81315  0.81315  0.43953  Biso   1.000  C
  C763     1.0000 0.20118  0.70118  0.97047  Biso   1.000  C
  C764     1.0000 0.22529  0.72529  0.97047  Biso   1.000  C
  H815     1.0000 0.23350  0.73350  0.95030  Biso   1.000  H
  C765     1.0000 0.18685  0.68685  0.93953  Biso   1.000  C
  C766     1.0000 0.20118  0.79882  0.52953  Biso   1.000  C
  C767     1.0000 0.22529  0.77471  0.52953  Biso   1.000  C
  H816     1.0000 0.23350  0.76650  0.54970  Biso   1.000  H
  C768     1.0000 0.18685  0.81315  0.56047  Biso   1.000  C
