data_image0
_cell_length_a       18.4951
_cell_length_b       18.4951
_cell_length_c       46.337
_cell_angle_alpha    90
_cell_angle_beta     90
_cell_angle_gamma    120

_symmetry_space_group_name_H-M    "P 1"
_symmetry_int_tables_number       1

loop_
  _symmetry_equiv_pos_as_xyz
  'x, y, z'

loop_
  _atom_site_label
  _atom_site_occupancy
  _atom_site_fract_x
  _atom_site_fract_y
  _atom_site_fract_z
  _atom_site_thermal_displace_type
  _atom_site_B_iso_or_equiv
  _atom_site_type_symbol
  O1       1.0000 0.63560  0.74290  0.36740  Biso   1.000  O
  O2       1.0000 0.55730  0.70490  0.32780  Biso   1.000  O
  O3       1.0000 0.36500  0.25140  0.62780  Biso   1.000  O
  O4       1.0000 0.44610  0.29320  0.66820  Biso   1.000  O
  C1       1.0000 0.57080  0.69070  0.35330  Biso   1.000  C
  C2       1.0000 0.51550  0.61680  0.37130  Biso   1.000  C
  C3       1.0000 0.52880  0.60540  0.40000  Biso   1.000  C
  H1       1.0000 0.57250  0.64760  0.41050  Biso   1.000  H
  C4       1.0000 0.46900  0.40220  0.60300  Biso   1.000  C
  H2       1.0000 0.42050  0.36380  0.59350  Biso   1.000  H
  C5       1.0000 0.48340  0.38570  0.63090  Biso   1.000  C
  C6       1.0000 0.42670  0.30090  0.64378  Biso   1.000  C
  O5       1.0000 0.30227  0.07623  0.70073  Biso   1.000  O
  O6       1.0000 0.22397  0.03823  0.66113  Biso   1.000  O
  O7       1.0000 0.03167  0.58473  0.96113  Biso   1.000  O
  O8       1.0000 0.11277  0.62653  0.00153  Biso   1.000  O
  C7       1.0000 0.23747  0.02403  0.68663  Biso   1.000  C
  C8       1.0000 0.18217  0.95013  0.70463  Biso   1.000  C
  C9       1.0000 0.19547  0.93873  0.73333  Biso   1.000  C
  H3       1.0000 0.23917  0.98093  0.74383  Biso   1.000  H
  C10      1.0000 0.13567  0.73553  0.93633  Biso   1.000  C
  H4       1.0000 0.08717  0.69713  0.92683  Biso   1.000  H
  C11      1.0000 0.15007  0.71903  0.96423  Biso   1.000  C
  C12      1.0000 0.09337  0.63423  0.97711  Biso   1.000  C
  O9       1.0000 0.96893  0.40957  0.03407  Biso   1.000  O
  O10      1.0000 0.89063  0.37157  0.99447  Biso   1.000  O
  O11      1.0000 0.69833  0.91807  0.29447  Biso   1.000  O
  O12      1.0000 0.77943  0.95987  0.33487  Biso   1.000  O
  C13      1.0000 0.90413  0.35737  0.01997  Biso   1.000  C
  C14      1.0000 0.84883  0.28347  0.03797  Biso   1.000  C
  C15      1.0000 0.86213  0.27207  0.06667  Biso   1.000  C
  H5       1.0000 0.90583  0.31427  0.07717  Biso   1.000  H
  C16      1.0000 0.80233  0.06887  0.26967  Biso   1.000  C
  H6       1.0000 0.75383  0.03047  0.26017  Biso   1.000  H
  C17      1.0000 0.81673  0.05237  0.29757  Biso   1.000  C
  C18      1.0000 0.76003  0.96757  0.31045  Biso   1.000  C
  O13      1.0000 0.25710  0.89270  0.36740  Biso   1.000  O
  O14      1.0000 0.29510  0.85240  0.32780  Biso   1.000  O
  O15      1.0000 0.74860  0.11360  0.62780  Biso   1.000  O
  O16      1.0000 0.70680  0.15290  0.66820  Biso   1.000  O
  C19      1.0000 0.30930  0.88010  0.35330  Biso   1.000  C
  C20      1.0000 0.38320  0.89870  0.37130  Biso   1.000  C
  C21      1.0000 0.39460  0.92340  0.40000  Biso   1.000  C
  H7       1.0000 0.35240  0.92490  0.41050  Biso   1.000  H
  C22      1.0000 0.59780  0.06680  0.60300  Biso   1.000  C
  H8       1.0000 0.63620  0.05670  0.59350  Biso   1.000  H
  C23      1.0000 0.61430  0.09770  0.63090  Biso   1.000  C
  C24      1.0000 0.69910  0.12580  0.64378  Biso   1.000  C
  O17      1.0000 0.92377  0.22603  0.70073  Biso   1.000  O
  O18      1.0000 0.96177  0.18573  0.66113  Biso   1.000  O
  O19      1.0000 0.41527  0.44693  0.96113  Biso   1.000  O
  O20      1.0000 0.37347  0.48623  0.00153  Biso   1.000  O
  C25      1.0000 0.97597  0.21343  0.68663  Biso   1.000  C
  C26      1.0000 0.04987  0.23203  0.70463  Biso   1.000  C
  C27      1.0000 0.06127  0.25673  0.73333  Biso   1.000  C
  H9       1.0000 0.01907  0.25823  0.74383  Biso   1.000  H
  C28      1.0000 0.26447  0.40013  0.93633  Biso   1.000  C
  H10      1.0000 0.30287  0.39003  0.92683  Biso   1.000  H
  C29      1.0000 0.28097  0.43103  0.96423  Biso   1.000  C
  C30      1.0000 0.36577  0.45913  0.97711  Biso   1.000  C
  O21      1.0000 0.59043  0.55937  0.03407  Biso   1.000  O
  O22      1.0000 0.62843  0.51907  0.99447  Biso   1.000  O
  O23      1.0000 0.08193  0.78027  0.29447  Biso   1.000  O
  O24      1.0000 0.04013  0.81957  0.33487  Biso   1.000  O
  C31      1.0000 0.64263  0.54677  0.01997  Biso   1.000  C
  C32      1.0000 0.71653  0.56537  0.03797  Biso   1.000  C
  C33      1.0000 0.72793  0.59007  0.06667  Biso   1.000  C
  H11      1.0000 0.68573  0.59157  0.07717  Biso   1.000  H
  C34      1.0000 0.93113  0.73347  0.26967  Biso   1.000  C
  H12      1.0000 0.96953  0.72337  0.26017  Biso   1.000  H
  C35      1.0000 0.94763  0.76437  0.29757  Biso   1.000  C
  C36      1.0000 0.03243  0.79247  0.31045  Biso   1.000  C
  O25      1.0000 0.10730  0.36440  0.36740  Biso   1.000  O
  O26      1.0000 0.14760  0.44270  0.32780  Biso   1.000  O
  O27      1.0000 0.88640  0.63500  0.62780  Biso   1.000  O
  O28      1.0000 0.84710  0.55390  0.66820  Biso   1.000  O
  C37      1.0000 0.11990  0.42920  0.35330  Biso   1.000  C
  C38      1.0000 0.10130  0.48450  0.37130  Biso   1.000  C
  C39      1.0000 0.07660  0.47120  0.40000  Biso   1.000  C
  H13      1.0000 0.07510  0.42750  0.41050  Biso   1.000  H
  C40      1.0000 0.93320  0.53100  0.60300  Biso   1.000  C
  H14      1.0000 0.94330  0.57950  0.59350  Biso   1.000  H
  C41      1.0000 0.90230  0.51660  0.63090  Biso   1.000  C
  C42      1.0000 0.87420  0.57330  0.64378  Biso   1.000  C
  O29      1.0000 0.77397  0.69773  0.70073  Biso   1.000  O
  O30      1.0000 0.81427  0.77603  0.66113  Biso   1.000  O
  O31      1.0000 0.55307  0.96833  0.96113  Biso   1.000  O
  O32      1.0000 0.51377  0.88723  0.00153  Biso   1.000  O
  C43      1.0000 0.78657  0.76253  0.68663  Biso   1.000  C
  C44      1.0000 0.76797  0.81783  0.70463  Biso   1.000  C
  C45      1.0000 0.74327  0.80453  0.73333  Biso   1.000  C
  H15      1.0000 0.74177  0.76083  0.74383  Biso   1.000  H
  C46      1.0000 0.59987  0.86433  0.93633  Biso   1.000  C
  H16      1.0000 0.60997  0.91283  0.92683  Biso   1.000  H
  C47      1.0000 0.56897  0.84993  0.96423  Biso   1.000  C
  C48      1.0000 0.54087  0.90663  0.97711  Biso   1.000  C
  O33      1.0000 0.44063  0.03107  0.03407  Biso   1.000  O
  O34      1.0000 0.48093  0.10937  0.99447  Biso   1.000  O
  O35      1.0000 0.21973  0.30167  0.29447  Biso   1.000  O
  O36      1.0000 0.18043  0.22057  0.33487  Biso   1.000  O
  C49      1.0000 0.45323  0.09587  0.01997  Biso   1.000  C
  C50      1.0000 0.43463  0.15117  0.03797  Biso   1.000  C
  C51      1.0000 0.40993  0.13787  0.06667  Biso   1.000  C
  H17      1.0000 0.40843  0.09417  0.07717  Biso   1.000  H
  C52      1.0000 0.26653  0.19767  0.26967  Biso   1.000  C
  H18      1.0000 0.27663  0.24617  0.26017  Biso   1.000  H
  C53      1.0000 0.23563  0.18327  0.29757  Biso   1.000  C
  C54      1.0000 0.20753  0.23997  0.31045  Biso   1.000  C
  O37      1.0000 0.74290  0.63560  0.63260  Biso   1.000  O
  O38      1.0000 0.70490  0.55730  0.67220  Biso   1.000  O
  O39      1.0000 0.25140  0.36500  0.37220  Biso   1.000  O
  O40      1.0000 0.29320  0.44610  0.33180  Biso   1.000  O
  C55      1.0000 0.69070  0.57080  0.64670  Biso   1.000  C
  C56      1.0000 0.61680  0.51550  0.62870  Biso   1.000  C
  C57      1.0000 0.60540  0.52880  0.60000  Biso   1.000  C
  H19      1.0000 0.64760  0.57250  0.58950  Biso   1.000  H
  C58      1.0000 0.40220  0.46900  0.39700  Biso   1.000  C
  H20      1.0000 0.36380  0.42050  0.40650  Biso   1.000  H
  C59      1.0000 0.38570  0.48340  0.36910  Biso   1.000  C
  C60      1.0000 0.30090  0.42670  0.35622  Biso   1.000  C
  O41      1.0000 0.40957  0.96893  0.96593  Biso   1.000  O
  O42      1.0000 0.37157  0.89063  0.00553  Biso   1.000  O
  O43      1.0000 0.91807  0.69833  0.70553  Biso   1.000  O
  O44      1.0000 0.95987  0.77943  0.66513  Biso   1.000  O
  C61      1.0000 0.35737  0.90413  0.98003  Biso   1.000  C
  C62      1.0000 0.28347  0.84883  0.96203  Biso   1.000  C
  C63      1.0000 0.27207  0.86213  0.93333  Biso   1.000  C
  H21      1.0000 0.31427  0.90583  0.92283  Biso   1.000  H
  C64      1.0000 0.06887  0.80233  0.73033  Biso   1.000  C
  H22      1.0000 0.03047  0.75383  0.73983  Biso   1.000  H
  C65      1.0000 0.05237  0.81673  0.70243  Biso   1.000  C
  C66      1.0000 0.96757  0.76003  0.68955  Biso   1.000  C
  O45      1.0000 0.07623  0.30227  0.29927  Biso   1.000  O
  O46      1.0000 0.03823  0.22397  0.33887  Biso   1.000  O
  O47      1.0000 0.58473  0.03167  0.03887  Biso   1.000  O
  O48      1.0000 0.62653  0.11277  0.99847  Biso   1.000  O
  C67      1.0000 0.02403  0.23747  0.31337  Biso   1.000  C
  C68      1.0000 0.95013  0.18217  0.29537  Biso   1.000  C
  C69      1.0000 0.93873  0.19547  0.26667  Biso   1.000  C
  H23      1.0000 0.98093  0.23917  0.25617  Biso   1.000  H
  C70      1.0000 0.73553  0.13567  0.06367  Biso   1.000  C
  H24      1.0000 0.69713  0.08717  0.07317  Biso   1.000  H
  C71      1.0000 0.71903  0.15007  0.03577  Biso   1.000  C
  C72      1.0000 0.63423  0.09337  0.02289  Biso   1.000  C
  O49      1.0000 0.89270  0.25710  0.63260  Biso   1.000  O
  O50      1.0000 0.85240  0.29510  0.67220  Biso   1.000  O
  O51      1.0000 0.11360  0.74860  0.37220  Biso   1.000  O
  O52      1.0000 0.15290  0.70680  0.33180  Biso   1.000  O
  C73      1.0000 0.88010  0.30930  0.64670  Biso   1.000  C
  C74      1.0000 0.89870  0.38320  0.62870  Biso   1.000  C
  C75      1.0000 0.92340  0.39460  0.60000  Biso   1.000  C
  H25      1.0000 0.92490  0.35240  0.58950  Biso   1.000  H
  C76      1.0000 0.06680  0.59780  0.39700  Biso   1.000  C
  H26      1.0000 0.05670  0.63620  0.40650  Biso   1.000  H
  C77      1.0000 0.09770  0.61430  0.36910  Biso   1.000  C
  C78      1.0000 0.12580  0.69910  0.35622  Biso   1.000  C
  O53      1.0000 0.55937  0.59043  0.96593  Biso   1.000  O
  O54      1.0000 0.51907  0.62843  0.00553  Biso   1.000  O
  O55      1.0000 0.78027  0.08193  0.70553  Biso   1.000  O
  O56      1.0000 0.81957  0.04013  0.66513  Biso   1.000  O
  C79      1.0000 0.54677  0.64263  0.98003  Biso   1.000  C
  C80      1.0000 0.56537  0.71653  0.96203  Biso   1.000  C
  C81      1.0000 0.59007  0.72793  0.93333  Biso   1.000  C
  H27      1.0000 0.59157  0.68573  0.92283  Biso   1.000  H
  C82      1.0000 0.73347  0.93113  0.73033  Biso   1.000  C
  H28      1.0000 0.72337  0.96953  0.73983  Biso   1.000  H
  C83      1.0000 0.76437  0.94763  0.70243  Biso   1.000  C
  C84      1.0000 0.79247  0.03243  0.68955  Biso   1.000  C
  O57      1.0000 0.22603  0.92377  0.29927  Biso   1.000  O
  O58      1.0000 0.18573  0.96177  0.33887  Biso   1.000  O
  O59      1.0000 0.44693  0.41527  0.03887  Biso   1.000  O
  O60      1.0000 0.48623  0.37347  0.99847  Biso   1.000  O
  C85      1.0000 0.21343  0.97597  0.31337  Biso   1.000  C
  C86      1.0000 0.23203  0.04987  0.29537  Biso   1.000  C
  C87      1.0000 0.25673  0.06127  0.26667  Biso   1.000  C
  H29      1.0000 0.25823  0.01907  0.25617  Biso   1.000  H
  C88      1.0000 0.40013  0.26447  0.06367  Biso   1.000  C
  H30      1.0000 0.39003  0.30287  0.07317  Biso   1.000  H
  C89      1.0000 0.43103  0.28097  0.03577  Biso   1.000  C
  C90      1.0000 0.45913  0.36577  0.02289  Biso   1.000  C
  O61      1.0000 0.36440  0.10730  0.63260  Biso   1.000  O
  O62      1.0000 0.44270  0.14760  0.67220  Biso   1.000  O
  O63      1.0000 0.63500  0.88640  0.37220  Biso   1.000  O
  O64      1.0000 0.55390  0.84710  0.33180  Biso   1.000  O
  C91      1.0000 0.42920  0.11990  0.64670  Biso   1.000  C
  C92      1.0000 0.48450  0.10130  0.62870  Biso   1.000  C
  C93      1.0000 0.47120  0.07660  0.60000  Biso   1.000  C
  H31      1.0000 0.42750  0.07510  0.58950  Biso   1.000  H
  C94      1.0000 0.53100  0.93320  0.39700  Biso   1.000  C
  H32      1.0000 0.57950  0.94330  0.40650  Biso   1.000  H
  C95      1.0000 0.51660  0.90230  0.36910  Biso   1.000  C
  C96      1.0000 0.57330  0.87420  0.35622  Biso   1.000  C
  O65      1.0000 0.03107  0.44063  0.96593  Biso   1.000  O
  O66      1.0000 0.10937  0.48093  0.00553  Biso   1.000  O
  O67      1.0000 0.30167  0.21973  0.70553  Biso   1.000  O
  O68      1.0000 0.22057  0.18043  0.66513  Biso   1.000  O
  C97      1.0000 0.09587  0.45323  0.98003  Biso   1.000  C
  C98      1.0000 0.15117  0.43463  0.96203  Biso   1.000  C
  C99      1.0000 0.13787  0.40993  0.93333  Biso   1.000  C
  H33      1.0000 0.09417  0.40843  0.92283  Biso   1.000  H
  C100     1.0000 0.19767  0.26653  0.73033  Biso   1.000  C
  H34      1.0000 0.24617  0.27663  0.73983  Biso   1.000  H
  C101     1.0000 0.18327  0.23563  0.70243  Biso   1.000  C
  C102     1.0000 0.23997  0.20753  0.68955  Biso   1.000  C
  O69      1.0000 0.69773  0.77397  0.29927  Biso   1.000  O
  O70      1.0000 0.77603  0.81427  0.33887  Biso   1.000  O
  O71      1.0000 0.96833  0.55307  0.03887  Biso   1.000  O
  O72      1.0000 0.88723  0.51377  0.99847  Biso   1.000  O
  C103     1.0000 0.76253  0.78657  0.31337  Biso   1.000  C
  C104     1.0000 0.81783  0.76797  0.29537  Biso   1.000  C
  C105     1.0000 0.80453  0.74327  0.26667  Biso   1.000  C
  H35      1.0000 0.76083  0.74177  0.25617  Biso   1.000  H
  C106     1.0000 0.86433  0.59987  0.06367  Biso   1.000  C
  H36      1.0000 0.91283  0.60997  0.07317  Biso   1.000  H
  C107     1.0000 0.84993  0.56897  0.03577  Biso   1.000  C
  C108     1.0000 0.90663  0.54087  0.02289  Biso   1.000  C
  O73      1.0000 0.36440  0.25710  0.63260  Biso   1.000  O
  O74      1.0000 0.44270  0.29510  0.67220  Biso   1.000  O
  O75      1.0000 0.63500  0.74860  0.37220  Biso   1.000  O
  O76      1.0000 0.55390  0.70680  0.33180  Biso   1.000  O
  C109     1.0000 0.42920  0.30930  0.64670  Biso   1.000  C
  C110     1.0000 0.48450  0.38320  0.62870  Biso   1.000  C
  C111     1.0000 0.47120  0.39460  0.60000  Biso   1.000  C
  H37      1.0000 0.42750  0.35240  0.58950  Biso   1.000  H
  C112     1.0000 0.53100  0.59780  0.39700  Biso   1.000  C
  H38      1.0000 0.57950  0.63620  0.40650  Biso   1.000  H
  C113     1.0000 0.51660  0.61430  0.36910  Biso   1.000  C
  C114     1.0000 0.57330  0.69910  0.35622  Biso   1.000  C
  O77      1.0000 0.03107  0.59043  0.96593  Biso   1.000  O
  O78      1.0000 0.10937  0.62843  0.00553  Biso   1.000  O
  O79      1.0000 0.30167  0.08193  0.70553  Biso   1.000  O
  O80      1.0000 0.22057  0.04013  0.66513  Biso   1.000  O
  C115     1.0000 0.09587  0.64263  0.98003  Biso   1.000  C
  C116     1.0000 0.15117  0.71653  0.96203  Biso   1.000  C
  C117     1.0000 0.13787  0.72793  0.93333  Biso   1.000  C
  H39      1.0000 0.09417  0.68573  0.92283  Biso   1.000  H
  C118     1.0000 0.19767  0.93113  0.73033  Biso   1.000  C
  H40      1.0000 0.24617  0.96953  0.73983  Biso   1.000  H
  C119     1.0000 0.18327  0.94763  0.70243  Biso   1.000  C
  C120     1.0000 0.23997  0.03243  0.68955  Biso   1.000  C
  O81      1.0000 0.69773  0.92377  0.29927  Biso   1.000  O
  O82      1.0000 0.77603  0.96177  0.33887  Biso   1.000  O
  O83      1.0000 0.96833  0.41527  0.03887  Biso   1.000  O
  O84      1.0000 0.88723  0.37347  0.99847  Biso   1.000  O
  C121     1.0000 0.76253  0.97597  0.31337  Biso   1.000  C
  C122     1.0000 0.81783  0.04987  0.29537  Biso   1.000  C
  C123     1.0000 0.80453  0.06127  0.26667  Biso   1.000  C
  H41      1.0000 0.76083  0.01907  0.25617  Biso   1.000  H
  C124     1.0000 0.86433  0.26447  0.06367  Biso   1.000  C
  H42      1.0000 0.91283  0.30287  0.07317  Biso   1.000  H
  C125     1.0000 0.84993  0.28097  0.03577  Biso   1.000  C
  C126     1.0000 0.90663  0.36577  0.02289  Biso   1.000  C
  O85      1.0000 0.74290  0.10730  0.63260  Biso   1.000  O
  O86      1.0000 0.70490  0.14760  0.67220  Biso   1.000  O
  O87      1.0000 0.25140  0.88640  0.37220  Biso   1.000  O
  O88      1.0000 0.29320  0.84710  0.33180  Biso   1.000  O
  C127     1.0000 0.69070  0.11990  0.64670  Biso   1.000  C
  C128     1.0000 0.61680  0.10130  0.62870  Biso   1.000  C
  C129     1.0000 0.60540  0.07660  0.60000  Biso   1.000  C
  H43      1.0000 0.64760  0.07510  0.58950  Biso   1.000  H
  C130     1.0000 0.40220  0.93320  0.39700  Biso   1.000  C
  H44      1.0000 0.36380  0.94330  0.40650  Biso   1.000  H
  C131     1.0000 0.38570  0.90230  0.36910  Biso   1.000  C
  C132     1.0000 0.30090  0.87420  0.35622  Biso   1.000  C
  O89      1.0000 0.40957  0.44063  0.96593  Biso   1.000  O
  O90      1.0000 0.37157  0.48093  0.00553  Biso   1.000  O
  O91      1.0000 0.91807  0.21973  0.70553  Biso   1.000  O
  O92      1.0000 0.95987  0.18043  0.66513  Biso   1.000  O
  C133     1.0000 0.35737  0.45323  0.98003  Biso   1.000  C
  C134     1.0000 0.28347  0.43463  0.96203  Biso   1.000  C
  C135     1.0000 0.27207  0.40993  0.93333  Biso   1.000  C
  H45      1.0000 0.31427  0.40843  0.92283  Biso   1.000  H
  C136     1.0000 0.06887  0.26653  0.73033  Biso   1.000  C
  H46      1.0000 0.03047  0.27663  0.73983  Biso   1.000  H
  C137     1.0000 0.05237  0.23563  0.70243  Biso   1.000  C
  C138     1.0000 0.96757  0.20753  0.68955  Biso   1.000  C
  O93      1.0000 0.07623  0.77397  0.29927  Biso   1.000  O
  O94      1.0000 0.03823  0.81427  0.33887  Biso   1.000  O
  O95      1.0000 0.58473  0.55307  0.03887  Biso   1.000  O
  O96      1.0000 0.62653  0.51377  0.99847  Biso   1.000  O
  C139     1.0000 0.02403  0.78657  0.31337  Biso   1.000  C
  C140     1.0000 0.95013  0.76797  0.29537  Biso   1.000  C
  C141     1.0000 0.93873  0.74327  0.26667  Biso   1.000  C
  H47      1.0000 0.98093  0.74177  0.25617  Biso   1.000  H
  C142     1.0000 0.73553  0.59987  0.06367  Biso   1.000  C
  H48      1.0000 0.69713  0.60997  0.07317  Biso   1.000  H
  C143     1.0000 0.71903  0.56897  0.03577  Biso   1.000  C
  C144     1.0000 0.63423  0.54087  0.02289  Biso   1.000  C
  O97      1.0000 0.89270  0.63560  0.63260  Biso   1.000  O
  O98      1.0000 0.85240  0.55730  0.67220  Biso   1.000  O
  O99      1.0000 0.11360  0.36500  0.37220  Biso   1.000  O
  O100     1.0000 0.15290  0.44610  0.33180  Biso   1.000  O
  C145     1.0000 0.88010  0.57080  0.64670  Biso   1.000  C
  C146     1.0000 0.89870  0.51550  0.62870  Biso   1.000  C
  C147     1.0000 0.92340  0.52880  0.60000  Biso   1.000  C
  H49      1.0000 0.92490  0.57250  0.58950  Biso   1.000  H
  C148     1.0000 0.06680  0.46900  0.39700  Biso   1.000  C
  H50      1.0000 0.05670  0.42050  0.40650  Biso   1.000  H
  C149     1.0000 0.09770  0.48340  0.36910  Biso   1.000  C
  C150     1.0000 0.12580  0.42670  0.35622  Biso   1.000  C
  O101     1.0000 0.55937  0.96893  0.96593  Biso   1.000  O
  O102     1.0000 0.51907  0.89063  0.00553  Biso   1.000  O
  O103     1.0000 0.78027  0.69833  0.70553  Biso   1.000  O
  O104     1.0000 0.81957  0.77943  0.66513  Biso   1.000  O
  C151     1.0000 0.54677  0.90413  0.98003  Biso   1.000  C
  C152     1.0000 0.56537  0.84883  0.96203  Biso   1.000  C
  C153     1.0000 0.59007  0.86213  0.93333  Biso   1.000  C
  H51      1.0000 0.59157  0.90583  0.92283  Biso   1.000  H
  C154     1.0000 0.73347  0.80233  0.73033  Biso   1.000  C
  H52      1.0000 0.72337  0.75383  0.73983  Biso   1.000  H
  C155     1.0000 0.76437  0.81673  0.70243  Biso   1.000  C
  C156     1.0000 0.79247  0.76003  0.68955  Biso   1.000  C
  O105     1.0000 0.22603  0.30227  0.29927  Biso   1.000  O
  O106     1.0000 0.18573  0.22397  0.33887  Biso   1.000  O
  O107     1.0000 0.44693  0.03167  0.03887  Biso   1.000  O
  O108     1.0000 0.48623  0.11277  0.99847  Biso   1.000  O
  C157     1.0000 0.21343  0.23747  0.31337  Biso   1.000  C
  C158     1.0000 0.23203  0.18217  0.29537  Biso   1.000  C
  C159     1.0000 0.25673  0.19547  0.26667  Biso   1.000  C
  H53      1.0000 0.25823  0.23917  0.25617  Biso   1.000  H
  C160     1.0000 0.40013  0.13567  0.06367  Biso   1.000  C
  H54      1.0000 0.39003  0.08717  0.07317  Biso   1.000  H
  C161     1.0000 0.43103  0.15007  0.03577  Biso   1.000  C
  C162     1.0000 0.45913  0.09337  0.02289  Biso   1.000  C
  O109     1.0000 0.25710  0.36440  0.36740  Biso   1.000  O
  O110     1.0000 0.29510  0.44270  0.32780  Biso   1.000  O
  O111     1.0000 0.74860  0.63500  0.62780  Biso   1.000  O
  O112     1.0000 0.70680  0.55390  0.66820  Biso   1.000  O
  C163     1.0000 0.30930  0.42920  0.35330  Biso   1.000  C
  C164     1.0000 0.38320  0.48450  0.37130  Biso   1.000  C
  C165     1.0000 0.39460  0.47120  0.40000  Biso   1.000  C
  H55      1.0000 0.35240  0.42750  0.41050  Biso   1.000  H
  C166     1.0000 0.59780  0.53100  0.60300  Biso   1.000  C
  H56      1.0000 0.63620  0.57950  0.59350  Biso   1.000  H
  C167     1.0000 0.61430  0.51660  0.63090  Biso   1.000  C
  C168     1.0000 0.69910  0.57330  0.64378  Biso   1.000  C
  O113     1.0000 0.92377  0.69773  0.70073  Biso   1.000  O
  O114     1.0000 0.96177  0.77603  0.66113  Biso   1.000  O
  O115     1.0000 0.41527  0.96833  0.96113  Biso   1.000  O
  O116     1.0000 0.37347  0.88723  0.00153  Biso   1.000  O
  C169     1.0000 0.97597  0.76253  0.68663  Biso   1.000  C
  C170     1.0000 0.04987  0.81783  0.70463  Biso   1.000  C
  C171     1.0000 0.06127  0.80453  0.73333  Biso   1.000  C
  H57      1.0000 0.01907  0.76083  0.74383  Biso   1.000  H
  C172     1.0000 0.26447  0.86433  0.93633  Biso   1.000  C
  H58      1.0000 0.30287  0.91283  0.92683  Biso   1.000  H
  C173     1.0000 0.28097  0.84993  0.96423  Biso   1.000  C
  C174     1.0000 0.36577  0.90663  0.97711  Biso   1.000  C
  O117     1.0000 0.59043  0.03107  0.03407  Biso   1.000  O
  O118     1.0000 0.62843  0.10937  0.99447  Biso   1.000  O
  O119     1.0000 0.08193  0.30167  0.29447  Biso   1.000  O
  O120     1.0000 0.04013  0.22057  0.33487  Biso   1.000  O
  C175     1.0000 0.64263  0.09587  0.01997  Biso   1.000  C
  C176     1.0000 0.71653  0.15117  0.03797  Biso   1.000  C
  C177     1.0000 0.72793  0.13787  0.06667  Biso   1.000  C
  H59      1.0000 0.68573  0.09417  0.07717  Biso   1.000  H
  C178     1.0000 0.93113  0.19767  0.26967  Biso   1.000  C
  H60      1.0000 0.96953  0.24617  0.26017  Biso   1.000  H
  C179     1.0000 0.94763  0.18327  0.29757  Biso   1.000  C
  C180     1.0000 0.03243  0.23997  0.31045  Biso   1.000  C
  O121     1.0000 0.10730  0.74290  0.36740  Biso   1.000  O
  O122     1.0000 0.14760  0.70490  0.32780  Biso   1.000  O
  O123     1.0000 0.88640  0.25140  0.62780  Biso   1.000  O
  O124     1.0000 0.84710  0.29320  0.66820  Biso   1.000  O
  C181     1.0000 0.11990  0.69070  0.35330  Biso   1.000  C
  C182     1.0000 0.10130  0.61680  0.37130  Biso   1.000  C
  C183     1.0000 0.07660  0.60540  0.40000  Biso   1.000  C
  H61      1.0000 0.07510  0.64760  0.41050  Biso   1.000  H
  C184     1.0000 0.93320  0.40220  0.60300  Biso   1.000  C
  H62      1.0000 0.94330  0.36380  0.59350  Biso   1.000  H
  C185     1.0000 0.90230  0.38570  0.63090  Biso   1.000  C
  C186     1.0000 0.87420  0.30090  0.64378  Biso   1.000  C
  O125     1.0000 0.77397  0.07623  0.70073  Biso   1.000  O
  O126     1.0000 0.81427  0.03823  0.66113  Biso   1.000  O
  O127     1.0000 0.55307  0.58473  0.96113  Biso   1.000  O
  O128     1.0000 0.51377  0.62653  0.00153  Biso   1.000  O
  C187     1.0000 0.78657  0.02403  0.68663  Biso   1.000  C
  C188     1.0000 0.76797  0.95013  0.70463  Biso   1.000  C
  C189     1.0000 0.74327  0.93873  0.73333  Biso   1.000  C
  H63      1.0000 0.74177  0.98093  0.74383  Biso   1.000  H
  C190     1.0000 0.59987  0.73553  0.93633  Biso   1.000  C
  H64      1.0000 0.60997  0.69713  0.92683  Biso   1.000  H
  C191     1.0000 0.56897  0.71903  0.96423  Biso   1.000  C
  C192     1.0000 0.54087  0.63423  0.97711  Biso   1.000  C
  O129     1.0000 0.44063  0.40957  0.03407  Biso   1.000  O
  O130     1.0000 0.48093  0.37157  0.99447  Biso   1.000  O
  O131     1.0000 0.21973  0.91807  0.29447  Biso   1.000  O
  O132     1.0000 0.18043  0.95987  0.33487  Biso   1.000  O
  C193     1.0000 0.45323  0.35737  0.01997  Biso   1.000  C
  C194     1.0000 0.43463  0.28347  0.03797  Biso   1.000  C
  C195     1.0000 0.40993  0.27207  0.06667  Biso   1.000  C
  H65      1.0000 0.40843  0.31427  0.07717  Biso   1.000  H
  C196     1.0000 0.26653  0.06887  0.26967  Biso   1.000  C
  H66      1.0000 0.27663  0.03047  0.26017  Biso   1.000  H
  C197     1.0000 0.23563  0.05237  0.29757  Biso   1.000  C
  C198     1.0000 0.20753  0.96757  0.31045  Biso   1.000  C
  O133     1.0000 0.63560  0.89270  0.36740  Biso   1.000  O
  O134     1.0000 0.55730  0.85240  0.32780  Biso   1.000  O
  O135     1.0000 0.36500  0.11360  0.62780  Biso   1.000  O
  O136     1.0000 0.44610  0.15290  0.66820  Biso   1.000  O
  C199     1.0000 0.57080  0.88010  0.35330  Biso   1.000  C
  C200     1.0000 0.51550  0.89870  0.37130  Biso   1.000  C
  C201     1.0000 0.52880  0.92340  0.40000  Biso   1.000  C
  H67      1.0000 0.57250  0.92490  0.41050  Biso   1.000  H
  C202     1.0000 0.46900  0.06680  0.60300  Biso   1.000  C
  H68      1.0000 0.42050  0.05670  0.59350  Biso   1.000  H
  C203     1.0000 0.48340  0.09770  0.63090  Biso   1.000  C
  C204     1.0000 0.42670  0.12580  0.64378  Biso   1.000  C
  O137     1.0000 0.30227  0.22603  0.70073  Biso   1.000  O
  O138     1.0000 0.22397  0.18573  0.66113  Biso   1.000  O
  O139     1.0000 0.03167  0.44693  0.96113  Biso   1.000  O
  O140     1.0000 0.11277  0.48623  0.00153  Biso   1.000  O
  C205     1.0000 0.23747  0.21343  0.68663  Biso   1.000  C
  C206     1.0000 0.18217  0.23203  0.70463  Biso   1.000  C
  C207     1.0000 0.19547  0.25673  0.73333  Biso   1.000  C
  H69      1.0000 0.23917  0.25823  0.74383  Biso   1.000  H
  C208     1.0000 0.13567  0.40013  0.93633  Biso   1.000  C
  H70      1.0000 0.08717  0.39003  0.92683  Biso   1.000  H
  C209     1.0000 0.15007  0.43103  0.96423  Biso   1.000  C
  C210     1.0000 0.09337  0.45913  0.97711  Biso   1.000  C
  O141     1.0000 0.96893  0.55937  0.03407  Biso   1.000  O
  O142     1.0000 0.89063  0.51907  0.99447  Biso   1.000  O
  O143     1.0000 0.69833  0.78027  0.29447  Biso   1.000  O
  O144     1.0000 0.77943  0.81957  0.33487  Biso   1.000  O
  C211     1.0000 0.90413  0.54677  0.01997  Biso   1.000  C
  C212     1.0000 0.84883  0.56537  0.03797  Biso   1.000  C
  C213     1.0000 0.86213  0.59007  0.06667  Biso   1.000  C
  H71      1.0000 0.90583  0.59157  0.07717  Biso   1.000  H
  C214     1.0000 0.80233  0.73347  0.26967  Biso   1.000  C
  H72      1.0000 0.75383  0.72337  0.26017  Biso   1.000  H
  C215     1.0000 0.81673  0.76437  0.29757  Biso   1.000  C
  C216     1.0000 0.76003  0.79247  0.31045  Biso   1.000  C
  Cu1      1.0000 0.71464  0.85732  0.35700  Biso   1.000  Cu
  Cu2      1.0000 0.38131  0.19065  0.69033  Biso   1.000  Cu
  Cu3      1.0000 0.04797  0.52399  0.02367  Biso   1.000  Cu
  Cu4      1.0000 0.14268  0.85732  0.35700  Biso   1.000  Cu
  Cu5      1.0000 0.80935  0.19065  0.69033  Biso   1.000  Cu
  Cu6      1.0000 0.47601  0.52399  0.02367  Biso   1.000  Cu
  Cu7      1.0000 0.14268  0.28536  0.35700  Biso   1.000  Cu
  Cu8      1.0000 0.80935  0.61869  0.69033  Biso   1.000  Cu
  Cu9      1.0000 0.47601  0.95203  0.02367  Biso   1.000  Cu
  Cu10     1.0000 0.85732  0.71464  0.64300  Biso   1.000  Cu
  Cu11     1.0000 0.52399  0.04797  0.97633  Biso   1.000  Cu
  Cu12     1.0000 0.19065  0.38131  0.30967  Biso   1.000  Cu
  Cu13     1.0000 0.85732  0.14268  0.64300  Biso   1.000  Cu
  Cu14     1.0000 0.52399  0.47601  0.97633  Biso   1.000  Cu
  Cu15     1.0000 0.19065  0.80935  0.30967  Biso   1.000  Cu
  Cu16     1.0000 0.28536  0.14268  0.64300  Biso   1.000  Cu
  Cu17     1.0000 0.95203  0.47601  0.97633  Biso   1.000  Cu
  Cu18     1.0000 0.61869  0.80935  0.30967  Biso   1.000  Cu
  C217     1.0000 0.44510  0.55490  0.35730  Biso   1.000  C
  H73      1.0000 0.44460  0.55540  0.33730  Biso   1.000  H
  C218     1.0000 0.48210  0.51790  0.44400  Biso   1.000  C
  C219     1.0000 0.52380  0.47620  0.45300  Biso   1.000  C
  C220     1.0000 0.53320  0.46680  0.48210  Biso   1.000  C
  C221     1.0000 0.50100  0.49900  0.50240  Biso   1.000  C
  C222     1.0000 0.45940  0.54060  0.49350  Biso   1.000  C
  C223     1.0000 0.45050  0.54950  0.46430  Biso   1.000  C
  C224     1.0000 0.46890  0.53110  0.41300  Biso   1.000  C
  C225     1.0000 0.40970  0.59030  0.45490  Biso   1.000  C
  H74      1.0000 0.40190  0.59810  0.43550  Biso   1.000  H
  C226     1.0000 0.37740  0.62260  0.47460  Biso   1.000  C
  H75      1.0000 0.34990  0.65010  0.46920  Biso   1.000  H
  C227     1.0000 0.38650  0.61350  0.50370  Biso   1.000  C
  H76      1.0000 0.36590  0.63410  0.51780  Biso   1.000  H
  C228     1.0000 0.42700  0.57300  0.51340  Biso   1.000  C
  H77      1.0000 0.43400  0.56600  0.53280  Biso   1.000  H
  C229     1.0000 0.55550  0.44450  0.43260  Biso   1.000  C
  H78      1.0000 0.54830  0.45170  0.41310  Biso   1.000  H
  C230     1.0000 0.59700  0.40300  0.44120  Biso   1.000  C
  H79      1.0000 0.61780  0.38220  0.42720  Biso   1.000  H
  C231     1.0000 0.60630  0.39370  0.47020  Biso   1.000  C
  H80      1.0000 0.63420  0.36580  0.47580  Biso   1.000  H
  C232     1.0000 0.57480  0.42520  0.49050  Biso   1.000  C
  H81      1.0000 0.58160  0.41840  0.51000  Biso   1.000  H
  C233     1.0000 0.51050  0.48950  0.53400  Biso   1.000  C
  C234     1.0000 0.51720  0.48280  0.55730  Biso   1.000  C
  C235     1.0000 0.52600  0.47400  0.58830  Biso   1.000  C
  C236     1.0000 0.55670  0.44330  0.64500  Biso   1.000  C
  H82      1.0000 0.56970  0.43030  0.66300  Biso   1.000  H
  C237     1.0000 0.11177  0.88823  0.69063  Biso   1.000  C
  H83      1.0000 0.11127  0.88873  0.67063  Biso   1.000  H
  C238     1.0000 0.14877  0.85123  0.77733  Biso   1.000  C
  C239     1.0000 0.19047  0.80953  0.78633  Biso   1.000  C
  C240     1.0000 0.19987  0.80013  0.81543  Biso   1.000  C
  C241     1.0000 0.16767  0.83233  0.83573  Biso   1.000  C
  C242     1.0000 0.12607  0.87393  0.82683  Biso   1.000  C
  C243     1.0000 0.11717  0.88283  0.79763  Biso   1.000  C
  C244     1.0000 0.13557  0.86443  0.74633  Biso   1.000  C
  C245     1.0000 0.07637  0.92363  0.78823  Biso   1.000  C
  H84      1.0000 0.06857  0.93143  0.76883  Biso   1.000  H
  C246     1.0000 0.04407  0.95593  0.80793  Biso   1.000  C
  H85      1.0000 0.01657  0.98343  0.80253  Biso   1.000  H
  C247     1.0000 0.05317  0.94683  0.83703  Biso   1.000  C
  H86      1.0000 0.03257  0.96743  0.85113  Biso   1.000  H
  C248     1.0000 0.09367  0.90633  0.84673  Biso   1.000  C
  H87      1.0000 0.10067  0.89933  0.86613  Biso   1.000  H
  C249     1.0000 0.22217  0.77783  0.76593  Biso   1.000  C
  H88      1.0000 0.21497  0.78503  0.74643  Biso   1.000  H
  C250     1.0000 0.26367  0.73633  0.77453  Biso   1.000  C
  H89      1.0000 0.28447  0.71553  0.76053  Biso   1.000  H
  C251     1.0000 0.27297  0.72703  0.80353  Biso   1.000  C
  H90      1.0000 0.30087  0.69913  0.80913  Biso   1.000  H
  C252     1.0000 0.24147  0.75853  0.82383  Biso   1.000  C
  H91      1.0000 0.24827  0.75173  0.84333  Biso   1.000  H
  C253     1.0000 0.17717  0.82283  0.86733  Biso   1.000  C
  C254     1.0000 0.18387  0.81613  0.89063  Biso   1.000  C
  C255     1.0000 0.19267  0.80733  0.92163  Biso   1.000  C
  C256     1.0000 0.22337  0.77663  0.97833  Biso   1.000  C
  H92      1.0000 0.23637  0.76363  0.99633  Biso   1.000  H
  C257     1.0000 0.77843  0.22157  0.02397  Biso   1.000  C
  H93      1.0000 0.77793  0.22207  0.00397  Biso   1.000  H
  C258     1.0000 0.81543  0.18457  0.11067  Biso   1.000  C
  C259     1.0000 0.85713  0.14287  0.11967  Biso   1.000  C
  C260     1.0000 0.86653  0.13347  0.14877  Biso   1.000  C
  C261     1.0000 0.83433  0.16567  0.16907  Biso   1.000  C
  C262     1.0000 0.79273  0.20727  0.16017  Biso   1.000  C
  C263     1.0000 0.78383  0.21617  0.13097  Biso   1.000  C
  C264     1.0000 0.80223  0.19777  0.07967  Biso   1.000  C
  C265     1.0000 0.74303  0.25697  0.12157  Biso   1.000  C
  H94      1.0000 0.73523  0.26477  0.10217  Biso   1.000  H
  C266     1.0000 0.71073  0.28927  0.14127  Biso   1.000  C
  H95      1.0000 0.68323  0.31677  0.13587  Biso   1.000  H
  C267     1.0000 0.71983  0.28017  0.17037  Biso   1.000  C
  H96      1.0000 0.69923  0.30077  0.18447  Biso   1.000  H
  C268     1.0000 0.76033  0.23967  0.18007  Biso   1.000  C
  H97      1.0000 0.76733  0.23267  0.19947  Biso   1.000  H
  C269     1.0000 0.88883  0.11117  0.09927  Biso   1.000  C
  H98      1.0000 0.88163  0.11837  0.07977  Biso   1.000  H
  C270     1.0000 0.93033  0.06967  0.10787  Biso   1.000  C
  H99      1.0000 0.95113  0.04887  0.09387  Biso   1.000  H
  C271     1.0000 0.93963  0.06037  0.13687  Biso   1.000  C
  H100     1.0000 0.96753  0.03247  0.14247  Biso   1.000  H
  C272     1.0000 0.90813  0.09187  0.15717  Biso   1.000  C
  H101     1.0000 0.91493  0.08507  0.17667  Biso   1.000  H
  C273     1.0000 0.84383  0.15617  0.20067  Biso   1.000  C
  C274     1.0000 0.85053  0.14947  0.22397  Biso   1.000  C
  C275     1.0000 0.85933  0.14067  0.25497  Biso   1.000  C
  C276     1.0000 0.89003  0.10997  0.31167  Biso   1.000  C
  H102     1.0000 0.90303  0.09697  0.32967  Biso   1.000  H
  C277     1.0000 0.44510  0.89020  0.35730  Biso   1.000  C
  H103     1.0000 0.44460  0.88920  0.33730  Biso   1.000  H
  C278     1.0000 0.48210  0.96420  0.44400  Biso   1.000  C
  C279     1.0000 0.52380  0.04760  0.45300  Biso   1.000  C
  C280     1.0000 0.53320  0.06640  0.48210  Biso   1.000  C
  C281     1.0000 0.50100  0.00200  0.50240  Biso   1.000  C
  C282     1.0000 0.45940  0.91880  0.49350  Biso   1.000  C
  C283     1.0000 0.45050  0.90100  0.46430  Biso   1.000  C
  C284     1.0000 0.46890  0.93780  0.41300  Biso   1.000  C
  C285     1.0000 0.40970  0.81940  0.45490  Biso   1.000  C
  H104     1.0000 0.40190  0.80380  0.43550  Biso   1.000  H
  C286     1.0000 0.37740  0.75480  0.47460  Biso   1.000  C
  H105     1.0000 0.34990  0.69980  0.46920  Biso   1.000  H
  C287     1.0000 0.38650  0.77300  0.50370  Biso   1.000  C
  H106     1.0000 0.36590  0.73180  0.51780  Biso   1.000  H
  C288     1.0000 0.42700  0.85400  0.51340  Biso   1.000  C
  H107     1.0000 0.43400  0.86800  0.53280  Biso   1.000  H
  C289     1.0000 0.55550  0.11100  0.43260  Biso   1.000  C
  H108     1.0000 0.54830  0.09660  0.41310  Biso   1.000  H
  C290     1.0000 0.59700  0.19400  0.44120  Biso   1.000  C
  H109     1.0000 0.61780  0.23560  0.42720  Biso   1.000  H
  C291     1.0000 0.60630  0.21260  0.47020  Biso   1.000  C
  H110     1.0000 0.63420  0.26840  0.47580  Biso   1.000  H
  C292     1.0000 0.57480  0.14960  0.49050  Biso   1.000  C
  H111     1.0000 0.58160  0.16320  0.51000  Biso   1.000  H
  C293     1.0000 0.51050  0.02100  0.53400  Biso   1.000  C
  C294     1.0000 0.51720  0.03440  0.55730  Biso   1.000  C
  C295     1.0000 0.52600  0.05200  0.58830  Biso   1.000  C
  C296     1.0000 0.55670  0.11340  0.64500  Biso   1.000  C
  H112     1.0000 0.56970  0.13940  0.66300  Biso   1.000  H
  C297     1.0000 0.11177  0.22353  0.69063  Biso   1.000  C
  H113     1.0000 0.11127  0.22253  0.67063  Biso   1.000  H
  C298     1.0000 0.14877  0.29753  0.77733  Biso   1.000  C
  C299     1.0000 0.19047  0.38093  0.78633  Biso   1.000  C
  C300     1.0000 0.19987  0.39973  0.81543  Biso   1.000  C
  C301     1.0000 0.16767  0.33533  0.83573  Biso   1.000  C
  C302     1.0000 0.12607  0.25213  0.82683  Biso   1.000  C
  C303     1.0000 0.11717  0.23433  0.79763  Biso   1.000  C
  C304     1.0000 0.13557  0.27113  0.74633  Biso   1.000  C
  C305     1.0000 0.07637  0.15273  0.78823  Biso   1.000  C
  H114     1.0000 0.06857  0.13713  0.76883  Biso   1.000  H
  C306     1.0000 0.04407  0.08813  0.80793  Biso   1.000  C
  H115     1.0000 0.01657  0.03313  0.80253  Biso   1.000  H
  C307     1.0000 0.05317  0.10633  0.83703  Biso   1.000  C
  H116     1.0000 0.03257  0.06513  0.85113  Biso   1.000  H
  C308     1.0000 0.09367  0.18733  0.84673  Biso   1.000  C
  H117     1.0000 0.10067  0.20133  0.86613  Biso   1.000  H
  C309     1.0000 0.22217  0.44433  0.76593  Biso   1.000  C
  H118     1.0000 0.21497  0.42993  0.74643  Biso   1.000  H
  C310     1.0000 0.26367  0.52733  0.77453  Biso   1.000  C
  H119     1.0000 0.28447  0.56893  0.76053  Biso   1.000  H
  C311     1.0000 0.27297  0.54593  0.80353  Biso   1.000  C
  H120     1.0000 0.30087  0.60173  0.80913  Biso   1.000  H
  C312     1.0000 0.24147  0.48293  0.82383  Biso   1.000  C
  H121     1.0000 0.24827  0.49653  0.84333  Biso   1.000  H
  C313     1.0000 0.17717  0.35433  0.86733  Biso   1.000  C
  C314     1.0000 0.18387  0.36773  0.89063  Biso   1.000  C
  C315     1.0000 0.19267  0.38533  0.92163  Biso   1.000  C
  C316     1.0000 0.22337  0.44673  0.97833  Biso   1.000  C
  H122     1.0000 0.23637  0.47273  0.99633  Biso   1.000  H
  C317     1.0000 0.77843  0.55687  0.02397  Biso   1.000  C
  H123     1.0000 0.77793  0.55587  0.00397  Biso   1.000  H
  C318     1.0000 0.81543  0.63087  0.11067  Biso   1.000  C
  C319     1.0000 0.85713  0.71427  0.11967  Biso   1.000  C
  C320     1.0000 0.86653  0.73307  0.14877  Biso   1.000  C
  C321     1.0000 0.83433  0.66867  0.16907  Biso   1.000  C
  C322     1.0000 0.79273  0.58547  0.16017  Biso   1.000  C
  C323     1.0000 0.78383  0.56767  0.13097  Biso   1.000  C
  C324     1.0000 0.80223  0.60447  0.07967  Biso   1.000  C
  C325     1.0000 0.74303  0.48607  0.12157  Biso   1.000  C
  H124     1.0000 0.73523  0.47047  0.10217  Biso   1.000  H
  C326     1.0000 0.71073  0.42147  0.14127  Biso   1.000  C
  H125     1.0000 0.68323  0.36647  0.13587  Biso   1.000  H
  C327     1.0000 0.71983  0.43967  0.17037  Biso   1.000  C
  H126     1.0000 0.69923  0.39847  0.18447  Biso   1.000  H
  C328     1.0000 0.76033  0.52067  0.18007  Biso   1.000  C
  H127     1.0000 0.76733  0.53467  0.19947  Biso   1.000  H
  C329     1.0000 0.88883  0.77767  0.09927  Biso   1.000  C
  H128     1.0000 0.88163  0.76327  0.07977  Biso   1.000  H
  C330     1.0000 0.93033  0.86067  0.10787  Biso   1.000  C
  H129     1.0000 0.95113  0.90227  0.09387  Biso   1.000  H
  C331     1.0000 0.93963  0.87927  0.13687  Biso   1.000  C
  H130     1.0000 0.96753  0.93507  0.14247  Biso   1.000  H
  C332     1.0000 0.90813  0.81627  0.15717  Biso   1.000  C
  H131     1.0000 0.91493  0.82987  0.17667  Biso   1.000  H
  C333     1.0000 0.84383  0.68767  0.20067  Biso   1.000  C
  C334     1.0000 0.85053  0.70107  0.22397  Biso   1.000  C
  C335     1.0000 0.85933  0.71867  0.25497  Biso   1.000  C
  C336     1.0000 0.89003  0.78007  0.31167  Biso   1.000  C
  H132     1.0000 0.90303  0.80607  0.32967  Biso   1.000  H
  C337     1.0000 0.10980  0.55490  0.35730  Biso   1.000  C
  H133     1.0000 0.11080  0.55540  0.33730  Biso   1.000  H
  C338     1.0000 0.03580  0.51790  0.44400  Biso   1.000  C
  C339     1.0000 0.95240  0.47620  0.45300  Biso   1.000  C
  C340     1.0000 0.93360  0.46680  0.48210  Biso   1.000  C
  C341     1.0000 0.99800  0.49900  0.50240  Biso   1.000  C
  C342     1.0000 0.08120  0.54060  0.49350  Biso   1.000  C
  C343     1.0000 0.09900  0.54950  0.46430  Biso   1.000  C
  C344     1.0000 0.06220  0.53110  0.41300  Biso   1.000  C
  C345     1.0000 0.18060  0.59030  0.45490  Biso   1.000  C
  H134     1.0000 0.19620  0.59810  0.43550  Biso   1.000  H
  C346     1.0000 0.24520  0.62260  0.47460  Biso   1.000  C
  H135     1.0000 0.30020  0.65010  0.46920  Biso   1.000  H
  C347     1.0000 0.22700  0.61350  0.50370  Biso   1.000  C
  H136     1.0000 0.26820  0.63410  0.51780  Biso   1.000  H
  C348     1.0000 0.14600  0.57300  0.51340  Biso   1.000  C
  H137     1.0000 0.13200  0.56600  0.53280  Biso   1.000  H
  C349     1.0000 0.88900  0.44450  0.43260  Biso   1.000  C
  H138     1.0000 0.90340  0.45170  0.41310  Biso   1.000  H
  C350     1.0000 0.80600  0.40300  0.44120  Biso   1.000  C
  H139     1.0000 0.76440  0.38220  0.42720  Biso   1.000  H
  C351     1.0000 0.78740  0.39370  0.47020  Biso   1.000  C
  H140     1.0000 0.73160  0.36580  0.47580  Biso   1.000  H
  C352     1.0000 0.85040  0.42520  0.49050  Biso   1.000  C
  H141     1.0000 0.83680  0.41840  0.51000  Biso   1.000  H
  C353     1.0000 0.97900  0.48950  0.53400  Biso   1.000  C
  C354     1.0000 0.96560  0.48280  0.55730  Biso   1.000  C
  C355     1.0000 0.94800  0.47400  0.58830  Biso   1.000  C
  C356     1.0000 0.88660  0.44330  0.64500  Biso   1.000  C
  H142     1.0000 0.86060  0.43030  0.66300  Biso   1.000  H
  C357     1.0000 0.77647  0.88823  0.69063  Biso   1.000  C
  H143     1.0000 0.77747  0.88873  0.67063  Biso   1.000  H
  C358     1.0000 0.70247  0.85123  0.77733  Biso   1.000  C
  C359     1.0000 0.61907  0.80953  0.78633  Biso   1.000  C
  C360     1.0000 0.60027  0.80013  0.81543  Biso   1.000  C
  C361     1.0000 0.66467  0.83233  0.83573  Biso   1.000  C
  C362     1.0000 0.74787  0.87393  0.82683  Biso   1.000  C
  C363     1.0000 0.76567  0.88283  0.79763  Biso   1.000  C
  C364     1.0000 0.72887  0.86443  0.74633  Biso   1.000  C
  C365     1.0000 0.84727  0.92363  0.78823  Biso   1.000  C
  H144     1.0000 0.86287  0.93143  0.76883  Biso   1.000  H
  C366     1.0000 0.91187  0.95593  0.80793  Biso   1.000  C
  H145     1.0000 0.96687  0.98343  0.80253  Biso   1.000  H
  C367     1.0000 0.89367  0.94683  0.83703  Biso   1.000  C
  H146     1.0000 0.93487  0.96743  0.85113  Biso   1.000  H
  C368     1.0000 0.81267  0.90633  0.84673  Biso   1.000  C
  H147     1.0000 0.79867  0.89933  0.86613  Biso   1.000  H
  C369     1.0000 0.55567  0.77783  0.76593  Biso   1.000  C
  H148     1.0000 0.57007  0.78503  0.74643  Biso   1.000  H
  C370     1.0000 0.47267  0.73633  0.77453  Biso   1.000  C
  H149     1.0000 0.43107  0.71553  0.76053  Biso   1.000  H
  C371     1.0000 0.45407  0.72703  0.80353  Biso   1.000  C
  H150     1.0000 0.39827  0.69913  0.80913  Biso   1.000  H
  C372     1.0000 0.51707  0.75853  0.82383  Biso   1.000  C
  H151     1.0000 0.50347  0.75173  0.84333  Biso   1.000  H
  C373     1.0000 0.64567  0.82283  0.86733  Biso   1.000  C
  C374     1.0000 0.63227  0.81613  0.89063  Biso   1.000  C
  C375     1.0000 0.61467  0.80733  0.92163  Biso   1.000  C
  C376     1.0000 0.55327  0.77663  0.97833  Biso   1.000  C
  H152     1.0000 0.52727  0.76363  0.99633  Biso   1.000  H
  C377     1.0000 0.44313  0.22157  0.02397  Biso   1.000  C
  H153     1.0000 0.44413  0.22207  0.00397  Biso   1.000  H
  C378     1.0000 0.36913  0.18457  0.11067  Biso   1.000  C
  C379     1.0000 0.28573  0.14287  0.11967  Biso   1.000  C
  C380     1.0000 0.26693  0.13347  0.14877  Biso   1.000  C
  C381     1.0000 0.33133  0.16567  0.16907  Biso   1.000  C
  C382     1.0000 0.41453  0.20727  0.16017  Biso   1.000  C
  C383     1.0000 0.43233  0.21617  0.13097  Biso   1.000  C
  C384     1.0000 0.39553  0.19777  0.07967  Biso   1.000  C
  C385     1.0000 0.51393  0.25697  0.12157  Biso   1.000  C
  H154     1.0000 0.52953  0.26477  0.10217  Biso   1.000  H
  C386     1.0000 0.57853  0.28927  0.14127  Biso   1.000  C
  H155     1.0000 0.63353  0.31677  0.13587  Biso   1.000  H
  C387     1.0000 0.56033  0.28017  0.17037  Biso   1.000  C
  H156     1.0000 0.60153  0.30077  0.18447  Biso   1.000  H
  C388     1.0000 0.47933  0.23967  0.18007  Biso   1.000  C
  H157     1.0000 0.46533  0.23267  0.19947  Biso   1.000  H
  C389     1.0000 0.22233  0.11117  0.09927  Biso   1.000  C
  H158     1.0000 0.23673  0.11837  0.07977  Biso   1.000  H
  C390     1.0000 0.13933  0.06967  0.10787  Biso   1.000  C
  H159     1.0000 0.09773  0.04887  0.09387  Biso   1.000  H
  C391     1.0000 0.12073  0.06037  0.13687  Biso   1.000  C
  H160     1.0000 0.06493  0.03247  0.14247  Biso   1.000  H
  C392     1.0000 0.18373  0.09187  0.15717  Biso   1.000  C
  H161     1.0000 0.17013  0.08507  0.17667  Biso   1.000  H
  C393     1.0000 0.31233  0.15617  0.20067  Biso   1.000  C
  C394     1.0000 0.29893  0.14947  0.22397  Biso   1.000  C
  C395     1.0000 0.28133  0.14067  0.25497  Biso   1.000  C
  C396     1.0000 0.21993  0.10997  0.31167  Biso   1.000  C
  H162     1.0000 0.19393  0.09697  0.32967  Biso   1.000  H
  C397     1.0000 0.55490  0.44510  0.64270  Biso   1.000  C
  H163     1.0000 0.55540  0.44460  0.66270  Biso   1.000  H
  C398     1.0000 0.51790  0.48210  0.55600  Biso   1.000  C
  C399     1.0000 0.47620  0.52380  0.54700  Biso   1.000  C
  C400     1.0000 0.46680  0.53320  0.51790  Biso   1.000  C
  C401     1.0000 0.49900  0.50100  0.49760  Biso   1.000  C
  C402     1.0000 0.54060  0.45940  0.50650  Biso   1.000  C
  C403     1.0000 0.54950  0.45050  0.53570  Biso   1.000  C
  C404     1.0000 0.53110  0.46890  0.58700  Biso   1.000  C
  C405     1.0000 0.59030  0.40970  0.54510  Biso   1.000  C
  H164     1.0000 0.59810  0.40190  0.56450  Biso   1.000  H
  C406     1.0000 0.62260  0.37740  0.52540  Biso   1.000  C
  H165     1.0000 0.65010  0.34990  0.53080  Biso   1.000  H
  C407     1.0000 0.61350  0.38650  0.49630  Biso   1.000  C
  H166     1.0000 0.63410  0.36590  0.48220  Biso   1.000  H
  C408     1.0000 0.57300  0.42700  0.48660  Biso   1.000  C
  H167     1.0000 0.56600  0.43400  0.46720  Biso   1.000  H
  C409     1.0000 0.44450  0.55550  0.56740  Biso   1.000  C
  H168     1.0000 0.45170  0.54830  0.58690  Biso   1.000  H
  C410     1.0000 0.40300  0.59700  0.55880  Biso   1.000  C
  H169     1.0000 0.38220  0.61780  0.57280  Biso   1.000  H
  C411     1.0000 0.39370  0.60630  0.52980  Biso   1.000  C
  H170     1.0000 0.36580  0.63420  0.52420  Biso   1.000  H
  C412     1.0000 0.42520  0.57480  0.50950  Biso   1.000  C
  H171     1.0000 0.41840  0.58160  0.49000  Biso   1.000  H
  C413     1.0000 0.48950  0.51050  0.46600  Biso   1.000  C
  C414     1.0000 0.48280  0.51720  0.44270  Biso   1.000  C
  C415     1.0000 0.47400  0.52600  0.41170  Biso   1.000  C
  C416     1.0000 0.44330  0.55670  0.35500  Biso   1.000  C
  H172     1.0000 0.43030  0.56970  0.33700  Biso   1.000  H
  C417     1.0000 0.22157  0.77843  0.97603  Biso   1.000  C
  H173     1.0000 0.22207  0.77793  0.99603  Biso   1.000  H
  C418     1.0000 0.18457  0.81543  0.88933  Biso   1.000  C
  C419     1.0000 0.14287  0.85713  0.88033  Biso   1.000  C
  C420     1.0000 0.13347  0.86653  0.85123  Biso   1.000  C
  C421     1.0000 0.16567  0.83433  0.83093  Biso   1.000  C
  C422     1.0000 0.20727  0.79273  0.83983  Biso   1.000  C
  C423     1.0000 0.21617  0.78383  0.86903  Biso   1.000  C
  C424     1.0000 0.19777  0.80223  0.92033  Biso   1.000  C
  C425     1.0000 0.25697  0.74303  0.87843  Biso   1.000  C
  H174     1.0000 0.26477  0.73523  0.89783  Biso   1.000  H
  C426     1.0000 0.28927  0.71073  0.85873  Biso   1.000  C
  H175     1.0000 0.31677  0.68323  0.86413  Biso   1.000  H
  C427     1.0000 0.28017  0.71983  0.82963  Biso   1.000  C
  H176     1.0000 0.30077  0.69923  0.81553  Biso   1.000  H
  C428     1.0000 0.23967  0.76033  0.81993  Biso   1.000  C
  H177     1.0000 0.23267  0.76733  0.80053  Biso   1.000  H
  C429     1.0000 0.11117  0.88883  0.90073  Biso   1.000  C
  H178     1.0000 0.11837  0.88163  0.92023  Biso   1.000  H
  C430     1.0000 0.06967  0.93033  0.89213  Biso   1.000  C
  H179     1.0000 0.04887  0.95113  0.90613  Biso   1.000  H
  C431     1.0000 0.06037  0.93963  0.86313  Biso   1.000  C
  H180     1.0000 0.03247  0.96753  0.85753  Biso   1.000  H
  C432     1.0000 0.09187  0.90813  0.84283  Biso   1.000  C
  H181     1.0000 0.08507  0.91493  0.82333  Biso   1.000  H
  C433     1.0000 0.15617  0.84383  0.79933  Biso   1.000  C
  C434     1.0000 0.14947  0.85053  0.77603  Biso   1.000  C
  C435     1.0000 0.14067  0.85933  0.74503  Biso   1.000  C
  C436     1.0000 0.10997  0.89003  0.68833  Biso   1.000  C
  H182     1.0000 0.09697  0.90303  0.67033  Biso   1.000  H
  C437     1.0000 0.88823  0.11177  0.30937  Biso   1.000  C
  H183     1.0000 0.88873  0.11127  0.32937  Biso   1.000  H
  C438     1.0000 0.85123  0.14877  0.22267  Biso   1.000  C
  C439     1.0000 0.80953  0.19047  0.21367  Biso   1.000  C
  C440     1.0000 0.80013  0.19987  0.18457  Biso   1.000  C
  C441     1.0000 0.83233  0.16767  0.16427  Biso   1.000  C
  C442     1.0000 0.87393  0.12607  0.17317  Biso   1.000  C
  C443     1.0000 0.88283  0.11717  0.20237  Biso   1.000  C
  C444     1.0000 0.86443  0.13557  0.25367  Biso   1.000  C
  C445     1.0000 0.92363  0.07637  0.21177  Biso   1.000  C
  H184     1.0000 0.93143  0.06857  0.23117  Biso   1.000  H
  C446     1.0000 0.95593  0.04407  0.19207  Biso   1.000  C
  H185     1.0000 0.98343  0.01657  0.19747  Biso   1.000  H
  C447     1.0000 0.94683  0.05317  0.16297  Biso   1.000  C
  H186     1.0000 0.96743  0.03257  0.14887  Biso   1.000  H
  C448     1.0000 0.90633  0.09367  0.15327  Biso   1.000  C
  H187     1.0000 0.89933  0.10067  0.13387  Biso   1.000  H
  C449     1.0000 0.77783  0.22217  0.23407  Biso   1.000  C
  H188     1.0000 0.78503  0.21497  0.25357  Biso   1.000  H
  C450     1.0000 0.73633  0.26367  0.22547  Biso   1.000  C
  H189     1.0000 0.71553  0.28447  0.23947  Biso   1.000  H
  C451     1.0000 0.72703  0.27297  0.19647  Biso   1.000  C
  H190     1.0000 0.69913  0.30087  0.19087  Biso   1.000  H
  C452     1.0000 0.75853  0.24147  0.17617  Biso   1.000  C
  H191     1.0000 0.75173  0.24827  0.15667  Biso   1.000  H
  C453     1.0000 0.82283  0.17717  0.13267  Biso   1.000  C
  C454     1.0000 0.81613  0.18387  0.10937  Biso   1.000  C
  C455     1.0000 0.80733  0.19267  0.07837  Biso   1.000  C
  C456     1.0000 0.77663  0.22337  0.02167  Biso   1.000  C
  H192     1.0000 0.76363  0.23637  0.00367  Biso   1.000  H
  C457     1.0000 0.89020  0.44510  0.64270  Biso   1.000  C
  H193     1.0000 0.88920  0.44460  0.66270  Biso   1.000  H
  C458     1.0000 0.96420  0.48210  0.55600  Biso   1.000  C
  C459     1.0000 0.04760  0.52380  0.54700  Biso   1.000  C
  C460     1.0000 0.06640  0.53320  0.51790  Biso   1.000  C
  C461     1.0000 0.00200  0.50100  0.49760  Biso   1.000  C
  C462     1.0000 0.91880  0.45940  0.50650  Biso   1.000  C
  C463     1.0000 0.90100  0.45050  0.53570  Biso   1.000  C
  C464     1.0000 0.93780  0.46890  0.58700  Biso   1.000  C
  C465     1.0000 0.81940  0.40970  0.54510  Biso   1.000  C
  H194     1.0000 0.80380  0.40190  0.56450  Biso   1.000  H
  C466     1.0000 0.75480  0.37740  0.52540  Biso   1.000  C
  H195     1.0000 0.69980  0.34990  0.53080  Biso   1.000  H
  C467     1.0000 0.77300  0.38650  0.49630  Biso   1.000  C
  H196     1.0000 0.73180  0.36590  0.48220  Biso   1.000  H
  C468     1.0000 0.85400  0.42700  0.48660  Biso   1.000  C
  H197     1.0000 0.86800  0.43400  0.46720  Biso   1.000  H
  C469     1.0000 0.11100  0.55550  0.56740  Biso   1.000  C
  H198     1.0000 0.09660  0.54830  0.58690  Biso   1.000  H
  C470     1.0000 0.19400  0.59700  0.55880  Biso   1.000  C
  H199     1.0000 0.23560  0.61780  0.57280  Biso   1.000  H
  C471     1.0000 0.21260  0.60630  0.52980  Biso   1.000  C
  H200     1.0000 0.26840  0.63420  0.52420  Biso   1.000  H
  C472     1.0000 0.14960  0.57480  0.50950  Biso   1.000  C
  H201     1.0000 0.16320  0.58160  0.49000  Biso   1.000  H
  C473     1.0000 0.02100  0.51050  0.46600  Biso   1.000  C
  C474     1.0000 0.03440  0.51720  0.44270  Biso   1.000  C
  C475     1.0000 0.05200  0.52600  0.41170  Biso   1.000  C
  C476     1.0000 0.11340  0.55670  0.35500  Biso   1.000  C
  H202     1.0000 0.13940  0.56970  0.33700  Biso   1.000  H
  C477     1.0000 0.55687  0.77843  0.97603  Biso   1.000  C
  H203     1.0000 0.55587  0.77793  0.99603  Biso   1.000  H
  C478     1.0000 0.63087  0.81543  0.88933  Biso   1.000  C
  C479     1.0000 0.71427  0.85713  0.88033  Biso   1.000  C
  C480     1.0000 0.73307  0.86653  0.85123  Biso   1.000  C
  C481     1.0000 0.66867  0.83433  0.83093  Biso   1.000  C
  C482     1.0000 0.58547  0.79273  0.83983  Biso   1.000  C
  C483     1.0000 0.56767  0.78383  0.86903  Biso   1.000  C
  C484     1.0000 0.60447  0.80223  0.92033  Biso   1.000  C
  C485     1.0000 0.48607  0.74303  0.87843  Biso   1.000  C
  H204     1.0000 0.47047  0.73523  0.89783  Biso   1.000  H
  C486     1.0000 0.42147  0.71073  0.85873  Biso   1.000  C
  H205     1.0000 0.36647  0.68323  0.86413  Biso   1.000  H
  C487     1.0000 0.43967  0.71983  0.82963  Biso   1.000  C
  H206     1.0000 0.39847  0.69923  0.81553  Biso   1.000  H
  C488     1.0000 0.52067  0.76033  0.81993  Biso   1.000  C
  H207     1.0000 0.53467  0.76733  0.80053  Biso   1.000  H
  C489     1.0000 0.77767  0.88883  0.90073  Biso   1.000  C
  H208     1.0000 0.76327  0.88163  0.92023  Biso   1.000  H
  C490     1.0000 0.86067  0.93033  0.89213  Biso   1.000  C
  H209     1.0000 0.90227  0.95113  0.90613  Biso   1.000  H
  C491     1.0000 0.87927  0.93963  0.86313  Biso   1.000  C
  H210     1.0000 0.93507  0.96753  0.85753  Biso   1.000  H
  C492     1.0000 0.81627  0.90813  0.84283  Biso   1.000  C
  H211     1.0000 0.82987  0.91493  0.82333  Biso   1.000  H
  C493     1.0000 0.68767  0.84383  0.79933  Biso   1.000  C
  C494     1.0000 0.70107  0.85053  0.77603  Biso   1.000  C
  C495     1.0000 0.71867  0.85933  0.74503  Biso   1.000  C
  C496     1.0000 0.78007  0.89003  0.68833  Biso   1.000  C
  H212     1.0000 0.80607  0.90303  0.67033  Biso   1.000  H
  C497     1.0000 0.22353  0.11177  0.30937  Biso   1.000  C
  H213     1.0000 0.22253  0.11127  0.32937  Biso   1.000  H
  C498     1.0000 0.29753  0.14877  0.22267  Biso   1.000  C
  C499     1.0000 0.38093  0.19047  0.21367  Biso   1.000  C
  C500     1.0000 0.39973  0.19987  0.18457  Biso   1.000  C
  C501     1.0000 0.33533  0.16767  0.16427  Biso   1.000  C
  C502     1.0000 0.25213  0.12607  0.17317  Biso   1.000  C
  C503     1.0000 0.23433  0.11717  0.20237  Biso   1.000  C
  C504     1.0000 0.27113  0.13557  0.25367  Biso   1.000  C
  C505     1.0000 0.15273  0.07637  0.21177  Biso   1.000  C
  H214     1.0000 0.13713  0.06857  0.23117  Biso   1.000  H
  C506     1.0000 0.08813  0.04407  0.19207  Biso   1.000  C
  H215     1.0000 0.03313  0.01657  0.19747  Biso   1.000  H
  C507     1.0000 0.10633  0.05317  0.16297  Biso   1.000  C
  H216     1.0000 0.06513  0.03257  0.14887  Biso   1.000  H
  C508     1.0000 0.18733  0.09367  0.15327  Biso   1.000  C
  H217     1.0000 0.20133  0.10067  0.13387  Biso   1.000  H
  C509     1.0000 0.44433  0.22217  0.23407  Biso   1.000  C
  H218     1.0000 0.42993  0.21497  0.25357  Biso   1.000  H
  C510     1.0000 0.52733  0.26367  0.22547  Biso   1.000  C
  H219     1.0000 0.56893  0.28447  0.23947  Biso   1.000  H
  C511     1.0000 0.54593  0.27297  0.19647  Biso   1.000  C
  H220     1.0000 0.60173  0.30087  0.19087  Biso   1.000  H
  C512     1.0000 0.48293  0.24147  0.17617  Biso   1.000  C
  H221     1.0000 0.49653  0.24827  0.15667  Biso   1.000  H
  C513     1.0000 0.35433  0.17717  0.13267  Biso   1.000  C
  C514     1.0000 0.36773  0.18387  0.10937  Biso   1.000  C
  C515     1.0000 0.38533  0.19267  0.07837  Biso   1.000  C
  C516     1.0000 0.44673  0.22337  0.02167  Biso   1.000  C
  H222     1.0000 0.47273  0.23637  0.00367  Biso   1.000  H
  C517     1.0000 0.55490  0.10980  0.64270  Biso   1.000  C
  H223     1.0000 0.55540  0.11080  0.66270  Biso   1.000  H
  C518     1.0000 0.51790  0.03580  0.55600  Biso   1.000  C
  C519     1.0000 0.47620  0.95240  0.54700  Biso   1.000  C
  C520     1.0000 0.46680  0.93360  0.51790  Biso   1.000  C
  C521     1.0000 0.49900  0.99800  0.49760  Biso   1.000  C
  C522     1.0000 0.54060  0.08120  0.50650  Biso   1.000  C
  C523     1.0000 0.54950  0.09900  0.53570  Biso   1.000  C
  C524     1.0000 0.53110  0.06220  0.58700  Biso   1.000  C
  C525     1.0000 0.59030  0.18060  0.54510  Biso   1.000  C
  H224     1.0000 0.59810  0.19620  0.56450  Biso   1.000  H
  C526     1.0000 0.62260  0.24520  0.52540  Biso   1.000  C
  H225     1.0000 0.65010  0.30020  0.53080  Biso   1.000  H
  C527     1.0000 0.61350  0.22700  0.49630  Biso   1.000  C
  H226     1.0000 0.63410  0.26820  0.48220  Biso   1.000  H
  C528     1.0000 0.57300  0.14600  0.48660  Biso   1.000  C
  H227     1.0000 0.56600  0.13200  0.46720  Biso   1.000  H
  C529     1.0000 0.44450  0.88900  0.56740  Biso   1.000  C
  H228     1.0000 0.45170  0.90340  0.58690  Biso   1.000  H
  C530     1.0000 0.40300  0.80600  0.55880  Biso   1.000  C
  H229     1.0000 0.38220  0.76440  0.57280  Biso   1.000  H
  C531     1.0000 0.39370  0.78740  0.52980  Biso   1.000  C
  H230     1.0000 0.36580  0.73160  0.52420  Biso   1.000  H
  C532     1.0000 0.42520  0.85040  0.50950  Biso   1.000  C
  H231     1.0000 0.41840  0.83680  0.49000  Biso   1.000  H
  C533     1.0000 0.48950  0.97900  0.46600  Biso   1.000  C
  C534     1.0000 0.48280  0.96560  0.44270  Biso   1.000  C
  C535     1.0000 0.47400  0.94800  0.41170  Biso   1.000  C
  C536     1.0000 0.44330  0.88660  0.35500  Biso   1.000  C
  H232     1.0000 0.43030  0.86060  0.33700  Biso   1.000  H
  C537     1.0000 0.22157  0.44313  0.97603  Biso   1.000  C
  H233     1.0000 0.22207  0.44413  0.99603  Biso   1.000  H
  C538     1.0000 0.18457  0.36913  0.88933  Biso   1.000  C
  C539     1.0000 0.14287  0.28573  0.88033  Biso   1.000  C
  C540     1.0000 0.13347  0.26693  0.85123  Biso   1.000  C
  C541     1.0000 0.16567  0.33133  0.83093  Biso   1.000  C
  C542     1.0000 0.20727  0.41453  0.83983  Biso   1.000  C
  C543     1.0000 0.21617  0.43233  0.86903  Biso   1.000  C
  C544     1.0000 0.19777  0.39553  0.92033  Biso   1.000  C
  C545     1.0000 0.25697  0.51393  0.87843  Biso   1.000  C
  H234     1.0000 0.26477  0.52953  0.89783  Biso   1.000  H
  C546     1.0000 0.28927  0.57853  0.85873  Biso   1.000  C
  H235     1.0000 0.31677  0.63353  0.86413  Biso   1.000  H
  C547     1.0000 0.28017  0.56033  0.82963  Biso   1.000  C
  H236     1.0000 0.30077  0.60153  0.81553  Biso   1.000  H
  C548     1.0000 0.23967  0.47933  0.81993  Biso   1.000  C
  H237     1.0000 0.23267  0.46533  0.80053  Biso   1.000  H
  C549     1.0000 0.11117  0.22233  0.90073  Biso   1.000  C
  H238     1.0000 0.11837  0.23673  0.92023  Biso   1.000  H
  C550     1.0000 0.06967  0.13933  0.89213  Biso   1.000  C
  H239     1.0000 0.04887  0.09773  0.90613  Biso   1.000  H
  C551     1.0000 0.06037  0.12073  0.86313  Biso   1.000  C
  H240     1.0000 0.03247  0.06493  0.85753  Biso   1.000  H
  C552     1.0000 0.09187  0.18373  0.84283  Biso   1.000  C
  H241     1.0000 0.08507  0.17013  0.82333  Biso   1.000  H
  C553     1.0000 0.15617  0.31233  0.79933  Biso   1.000  C
  C554     1.0000 0.14947  0.29893  0.77603  Biso   1.000  C
  C555     1.0000 0.14067  0.28133  0.74503  Biso   1.000  C
  C556     1.0000 0.10997  0.21993  0.68833  Biso   1.000  C
  H242     1.0000 0.09697  0.19393  0.67033  Biso   1.000  H
  C557     1.0000 0.88823  0.77647  0.30937  Biso   1.000  C
  H243     1.0000 0.88873  0.77747  0.32937  Biso   1.000  H
  C558     1.0000 0.85123  0.70247  0.22267  Biso   1.000  C
  C559     1.0000 0.80953  0.61907  0.21367  Biso   1.000  C
  C560     1.0000 0.80013  0.60027  0.18457  Biso   1.000  C
  C561     1.0000 0.83233  0.66467  0.16427  Biso   1.000  C
  C562     1.0000 0.87393  0.74787  0.17317  Biso   1.000  C
  C563     1.0000 0.88283  0.76567  0.20237  Biso   1.000  C
  C564     1.0000 0.86443  0.72887  0.25367  Biso   1.000  C
  C565     1.0000 0.92363  0.84727  0.21177  Biso   1.000  C
  H244     1.0000 0.93143  0.86287  0.23117  Biso   1.000  H
  C566     1.0000 0.95593  0.91187  0.19207  Biso   1.000  C
  H245     1.0000 0.98343  0.96687  0.19747  Biso   1.000  H
  C567     1.0000 0.94683  0.89367  0.16297  Biso   1.000  C
  H246     1.0000 0.96743  0.93487  0.14887  Biso   1.000  H
  C568     1.0000 0.90633  0.81267  0.15327  Biso   1.000  C
  H247     1.0000 0.89933  0.79867  0.13387  Biso   1.000  H
  C569     1.0000 0.77783  0.55567  0.23407  Biso   1.000  C
  H248     1.0000 0.78503  0.57007  0.25357  Biso   1.000  H
  C570     1.0000 0.73633  0.47267  0.22547  Biso   1.000  C
  H249     1.0000 0.71553  0.43107  0.23947  Biso   1.000  H
  C571     1.0000 0.72703  0.45407  0.19647  Biso   1.000  C
  H250     1.0000 0.69913  0.39827  0.19087  Biso   1.000  H
  C572     1.0000 0.75853  0.51707  0.17617  Biso   1.000  C
  H251     1.0000 0.75173  0.50347  0.15667  Biso   1.000  H
  C573     1.0000 0.82283  0.64567  0.13267  Biso   1.000  C
  C574     1.0000 0.81613  0.63227  0.10937  Biso   1.000  C
  C575     1.0000 0.80733  0.61467  0.07837  Biso   1.000  C
  C576     1.0000 0.77663  0.55327  0.02167  Biso   1.000  C
  H252     1.0000 0.76363  0.52727  0.00367  Biso   1.000  H
