data_image0
_cell_length_a       30.573
_cell_length_b       30.573
_cell_length_c       13.521
_cell_angle_alpha    90
_cell_angle_beta     90
_cell_angle_gamma    120

_symmetry_space_group_name_H-M    "P 1"
_symmetry_int_tables_number       1

loop_
  _symmetry_equiv_pos_as_xyz
  'x, y, z'

loop_
  _atom_site_label
  _atom_site_occupancy
  _atom_site_fract_x
  _atom_site_fract_y
  _atom_site_fract_z
  _atom_site_thermal_displace_type
  _atom_site_B_iso_or_equiv
  _atom_site_type_symbol
  La1      1.0000 0.60716  0.07390  0.41988  Biso   1.000  La
  La2      1.0000 0.52876  0.04816  0.68654  Biso   1.000  La
  La3      1.0000 0.58981  0.04951  0.95333  Biso   1.000  La
  P1       1.0000 0.65110  0.09907  0.69277  Biso   1.000  P
  O1       1.0000 0.62060  0.09440  0.59930  Biso   1.000  O
  O2       1.0000 0.61263  0.08336  0.77760  Biso   1.000  O
  O3       1.0000 0.67840  0.06990  0.68970  Biso   1.000  O
  N1       1.0000 0.79300  0.32130  0.66800  Biso   1.000  N
  N2       1.0000 0.85860  0.39760  0.65940  Biso   1.000  N
  N3       1.0000 0.81810  0.39810  0.61280  Biso   1.000  N
  C1       1.0000 0.69640  0.16530  0.70440  Biso   1.000  C
  C2       1.0000 0.74780  0.18420  0.68550  Biso   1.000  C
  H1       1.0000 0.76020  0.16150  0.67780  Biso   1.000  H
  C3       1.0000 0.78100  0.23590  0.67790  Biso   1.000  C
  H2       1.0000 0.81600  0.24870  0.66650  Biso   1.000  H
  C4       1.0000 0.76180  0.26810  0.68710  Biso   1.000  C
  C5       1.0000 0.71100  0.25060  0.71130  Biso   1.000  C
  H3       1.0000 0.69890  0.27350  0.72100  Biso   1.000  H
  C6       1.0000 0.67910  0.19880  0.72040  Biso   1.000  C
  H4       1.0000 0.64480  0.18610  0.73790  Biso   1.000  H
  C7       1.0000 0.84280  0.35140  0.69020  Biso   1.000  C
  H5       1.0000 0.86320  0.34050  0.72310  Biso   1.000  H
  C8       1.0000 0.78060  0.35270  0.62030  Biso   1.000  C
  H6       1.0000 0.74780  0.34230  0.59520  Biso   1.000  H
  P2       1.0000 0.47407  0.04680  0.48163  Biso   1.000  P
  O4       1.0000 0.44989  0.02048  0.58020  Biso   1.000  O
  O5       1.0000 0.45131  0.01098  0.39590  Biso   1.000  O
  O6       1.0000 0.53092  0.06881  0.49550  Biso   1.000  O
  N4       1.0000 0.42670  0.21517  0.43650  Biso   1.000  N
  N5       1.0000 0.43430  0.29010  0.43050  Biso   1.000  N
  N6       1.0000 0.38420  0.25480  0.41590  Biso   1.000  N
  C9       1.0000 0.46030  0.09750  0.46720  Biso   1.000  C
  C10      1.0000 0.49690  0.14530  0.43440  Biso   1.000  C
  H7       1.0000 0.52970  0.15120  0.41910  Biso   1.000  H
  C11      1.0000 0.48650  0.18450  0.42350  Biso   1.000  C
  H8       1.0000 0.51170  0.21680  0.40130  Biso   1.000  H
  C12      1.0000 0.43840  0.17510  0.44590  Biso   1.000  C
  C13      1.0000 0.40180  0.12790  0.47970  Biso   1.000  C
  H9       1.0000 0.36910  0.12210  0.49610  Biso   1.000  H
  C14      1.0000 0.41260  0.08980  0.48920  Biso   1.000  C
  H10      1.0000 0.38710  0.05760  0.51140  Biso   1.000  H
  C15      1.0000 0.45830  0.26550  0.44380  Biso   1.000  C
  H11      1.0000 0.49340  0.28100  0.45700  Biso   1.000  H
  C16      1.0000 0.38060  0.21100  0.41890  Biso   1.000  C
  H12      1.0000 0.35010  0.17990  0.41010  Biso   1.000  H
  P3       1.0000 0.48392  0.07184  0.89937  Biso   1.000  P
  O7       1.0000 0.46610  0.05625  0.79250  Biso   1.000  O
  O8       1.0000 0.53960  0.08810  0.89990  Biso   1.000  O
  O9       1.0000 0.45240  0.03267  0.97280  Biso   1.000  O
  N7       1.0000 0.46760  0.25850  0.95020  Biso   1.000  N
  N8       1.0000 0.44090  0.31140  0.94690  Biso   1.000  N
  C17      1.0000 0.48580  0.13180  0.92600  Biso   1.000  C
  C18      1.0000 0.53530  0.17840  0.92440  Biso   1.000  C
  H13      1.0000 0.56550  0.17700  0.91740  Biso   1.000  H
  C19      1.0000 0.53680  0.22360  0.93310  Biso   1.000  C
  H14      1.0000 0.56800  0.25450  0.93130  Biso   1.000  H
  C20      1.0000 0.48940  0.22280  0.94530  Biso   1.000  C
  C21      1.0000 0.44290  0.17900  0.94580  Biso   1.000  C
  H15      1.0000 0.41180  0.17850  0.95270  Biso   1.000  H
  C22      1.0000 0.44640  0.13770  0.93590  Biso   1.000  C
  H16      1.0000 0.41490  0.10710  0.93580  Biso   1.000  H
  C23      1.0000 0.42460  0.26070  0.93070  Biso   1.000  C
  H17      1.0000 0.39220  0.23440  0.91120  Biso   1.000  H
  C24      1.0000 0.50140  0.30360  0.97310  Biso   1.000  C
  H18      1.0000 0.53480  0.31210  0.99090  Biso   1.000  H
  N9       1.0000 0.48600  0.33840  0.97010  Biso   1.000  N
  P4       1.0000 0.52645  0.05426  0.18587  Biso   1.000  P
  O10      1.0000 0.54320  0.04663  0.28780  Biso   1.000  O
  O11      1.0000 0.47887  0.00505  0.16230  Biso   1.000  O
  O12      1.0000 0.56370  0.07590  0.11080  Biso   1.000  O
  N10      1.0000 0.43540  0.19360  0.18240  Biso   1.000  N
  N11      1.0000 0.38190  0.21990  0.16360  Biso   1.000  N
  N12      1.0000 0.42840  0.25970  0.18480  Biso   1.000  N
  C25      1.0000 0.49970  0.09990  0.19330  Biso   1.000  C
  C26      1.0000 0.44910  0.08060  0.21300  Biso   1.000  C
  H19      1.0000 0.42850  0.04560  0.22700  Biso   1.000  H
  C27      1.0000 0.42780  0.11150  0.21270  Biso   1.000  C
  H20      1.0000 0.39340  0.09830  0.23010  Biso   1.000  H
  C28      1.0000 0.45710  0.16130  0.18690  Biso   1.000  C
  C29      1.0000 0.51260  0.18320  0.17540  Biso   1.000  C
  H21      1.0000 0.53500  0.21850  0.17050  Biso   1.000  H
  C30      1.0000 0.52950  0.14940  0.17230  Biso   1.000  C
  H22      1.0000 0.56370  0.16130  0.15470  Biso   1.000  H
  C31      1.0000 0.38510  0.17740  0.16530  Biso   1.000  C
  H23      1.0000 0.35850  0.14360  0.15660  Biso   1.000  H
  C32      1.0000 0.46120  0.24080  0.19320  Biso   1.000  C
  O13      1.0000 0.65550  0.05860  0.08950  Biso   1.000  O
  O14      1.0000 0.64940  0.02320  0.87930  Biso   1.000  O
  O15      1.0000 0.64070  0.12740  0.25540  Biso   1.000  O
  O16      1.0000 0.66040  0.03710  0.49080  Biso   1.000  O
  O17      1.0000 0.62140  0.16470  0.44150  Biso   1.000  O
  N13      1.0000 0.50000  0.27410  0.95780  Biso   1.000  N
  N14      1.0000 0.52880  0.35810  0.98330  Biso   1.000  N
  C33      1.0000 0.47840  0.12690  0.92100  Biso   1.000  C
  C34      1.0000 0.51790  0.17320  0.92350  Biso   1.000  C
  H24      1.0000 0.55050  0.17680  0.91800  Biso   1.000  H
  C35      1.0000 0.51490  0.21910  0.93450  Biso   1.000  C
  H25      1.0000 0.54290  0.25240  0.93850  Biso   1.000  H
  C36      1.0000 0.46390  0.20600  0.93810  Biso   1.000  C
  C37      1.0000 0.42150  0.16210  0.93560  Biso   1.000  C
  H26      1.0000 0.38880  0.15870  0.93750  Biso   1.000  H
  C38      1.0000 0.43040  0.11830  0.92930  Biso   1.000  C
  H27      1.0000 0.40280  0.08470  0.93130  Biso   1.000  H
  C39      1.0000 0.46350  0.28980  0.95100  Biso   1.000  C
  H28      1.0000 0.42870  0.26870  0.93540  Biso   1.000  H
  C40      1.0000 0.54080  0.31760  0.98120  Biso   1.000  C
  H29      1.0000 0.57320  0.32170  0.99450  Biso   1.000  H
  N15      1.0000 0.50040  0.23170  0.19650  Biso   1.000  N
  N16      1.0000 0.47670  0.28760  0.21890  Biso   1.000  N
  N17      1.0000 0.52760  0.31000  0.23990  Biso   1.000  N
  C41      1.0000 0.52680  0.10540  0.18500  Biso   1.000  C
  C42      1.0000 0.48380  0.10020  0.19800  Biso   1.000  C
  H30      1.0000 0.45600  0.06720  0.20830  Biso   1.000  H
  C43      1.0000 0.47460  0.14600  0.19900  Biso   1.000  C
  H31      1.0000 0.44230  0.13860  0.22220  Biso   1.000  H
  C44      1.0000 0.49930  0.18490  0.17700  Biso   1.000  C
  C45      1.0000 0.56150  0.19800  0.17680  Biso   1.000  C
  H32      1.0000 0.58900  0.23160  0.18120  Biso   1.000  H
  C46      1.0000 0.56960  0.15500  0.16980  Biso   1.000  C
  H33      1.0000 0.60200  0.15950  0.15570  Biso   1.000  H
  C47      1.0000 0.54110  0.27600  0.22590  Biso   1.000  C
  H34      1.0000 0.57420  0.28140  0.23490  Biso   1.000  H
  O18      1.0000 0.57670  0.06320  0.11510  Biso   1.000  O
  O19      1.0000 0.65370  0.09320  0.25630  Biso   1.000  O
  O20      1.0000 0.66980  0.03490  0.42520  Biso   1.000  O
  O21      1.0000 0.62160  0.16110  0.39940  Biso   1.000  O
  O22      1.0000 0.63500  0.00340  0.84470  Biso   1.000  O
  O23      1.0000 0.65600  0.03200  0.06430  Biso   1.000  O
  La4      1.0000 0.92610  0.53326  0.41988  Biso   1.000  La
  La5      1.0000 0.95184  0.48061  0.68654  Biso   1.000  La
  La6      1.0000 0.95049  0.54030  0.95333  Biso   1.000  La
  P5       1.0000 0.90093  0.55203  0.69277  Biso   1.000  P
  O24      1.0000 0.90560  0.52620  0.59930  Biso   1.000  O
  O25      1.0000 0.91664  0.52927  0.77760  Biso   1.000  O
  O26      1.0000 0.93010  0.60850  0.68970  Biso   1.000  O
  N18      1.0000 0.67870  0.47170  0.66800  Biso   1.000  N
  N19      1.0000 0.60240  0.46100  0.65940  Biso   1.000  N
  N20      1.0000 0.60190  0.42000  0.61280  Biso   1.000  N
  C48      1.0000 0.83470  0.53110  0.70440  Biso   1.000  C
  C49      1.0000 0.81580  0.56360  0.68550  Biso   1.000  C
  H35      1.0000 0.83850  0.59870  0.67780  Biso   1.000  H
  C50      1.0000 0.76410  0.54510  0.67790  Biso   1.000  C
  H36      1.0000 0.75130  0.56730  0.66650  Biso   1.000  H
  C51      1.0000 0.73190  0.49370  0.68710  Biso   1.000  C
  C52      1.0000 0.74940  0.46040  0.71130  Biso   1.000  C
  H37      1.0000 0.72650  0.42540  0.72100  Biso   1.000  H
  C53      1.0000 0.80120  0.48030  0.72040  Biso   1.000  C
  H38      1.0000 0.81390  0.45870  0.73790  Biso   1.000  H
  C54      1.0000 0.64860  0.49140  0.69020  Biso   1.000  C
  H39      1.0000 0.65950  0.52270  0.72310  Biso   1.000  H
  C55      1.0000 0.64730  0.42790  0.62030  Biso   1.000  C
  H40      1.0000 0.65770  0.40550  0.59520  Biso   1.000  H
  P6       1.0000 0.95320  0.42727  0.48163  Biso   1.000  P
  O27      1.0000 0.97952  0.42941  0.58020  Biso   1.000  O
  O28      1.0000 0.98902  0.44033  0.39590  Biso   1.000  O
  O29      1.0000 0.93119  0.46211  0.49550  Biso   1.000  O
  N21      1.0000 0.78483  0.21153  0.43650  Biso   1.000  N
  N22      1.0000 0.70990  0.14420  0.43050  Biso   1.000  N
  N23      1.0000 0.74520  0.12940  0.41590  Biso   1.000  N
  C56      1.0000 0.90250  0.36280  0.46720  Biso   1.000  C
  C57      1.0000 0.85470  0.35160  0.43440  Biso   1.000  C
  H41      1.0000 0.84880  0.37850  0.41910  Biso   1.000  H
  C58      1.0000 0.81550  0.30200  0.42350  Biso   1.000  C
  H42      1.0000 0.78320  0.29490  0.40130  Biso   1.000  H
  C59      1.0000 0.82490  0.26330  0.44590  Biso   1.000  C
  C60      1.0000 0.87210  0.27390  0.47970  Biso   1.000  C
  H43      1.0000 0.87790  0.24700  0.49610  Biso   1.000  H
  C61      1.0000 0.91020  0.32280  0.48920  Biso   1.000  C
  H44      1.0000 0.94240  0.32950  0.51140  Biso   1.000  H
  C62      1.0000 0.73450  0.19280  0.44380  Biso   1.000  C
  H45      1.0000 0.71900  0.21240  0.45700  Biso   1.000  H
  C63      1.0000 0.78900  0.16960  0.41890  Biso   1.000  C
  H46      1.0000 0.82010  0.17020  0.41010  Biso   1.000  H
  P7       1.0000 0.92816  0.41208  0.89937  Biso   1.000  P
  O30      1.0000 0.94375  0.40985  0.79250  Biso   1.000  O
  O31      1.0000 0.91190  0.45150  0.89990  Biso   1.000  O
  O32      1.0000 0.96733  0.41973  0.97280  Biso   1.000  O
  N24      1.0000 0.74150  0.20910  0.95020  Biso   1.000  N
  N25      1.0000 0.68860  0.12950  0.94690  Biso   1.000  N
  C64      1.0000 0.86820  0.35400  0.92600  Biso   1.000  C
  C65      1.0000 0.82160  0.35690  0.92440  Biso   1.000  C
  H47      1.0000 0.82300  0.38850  0.91740  Biso   1.000  H
  C66      1.0000 0.77640  0.31320  0.93310  Biso   1.000  C
  H48      1.0000 0.74550  0.31350  0.93130  Biso   1.000  H
  C67      1.0000 0.77720  0.26660  0.94530  Biso   1.000  C
  C68      1.0000 0.82100  0.26390  0.94580  Biso   1.000  C
  H49      1.0000 0.82150  0.23330  0.95270  Biso   1.000  H
  C69      1.0000 0.86230  0.30870  0.93590  Biso   1.000  C
  H50      1.0000 0.89290  0.30780  0.93580  Biso   1.000  H
  C70      1.0000 0.73930  0.16390  0.93070  Biso   1.000  C
  H51      1.0000 0.76560  0.15780  0.91120  Biso   1.000  H
  C71      1.0000 0.69640  0.19780  0.97310  Biso   1.000  C
  H52      1.0000 0.68790  0.22270  0.99090  Biso   1.000  H
  N26      1.0000 0.66160  0.14760  0.97010  Biso   1.000  N
  P8       1.0000 0.94574  0.47219  0.18587  Biso   1.000  P
  O33      1.0000 0.95337  0.49657  0.28780  Biso   1.000  O
  O34      1.0000 0.99495  0.47382  0.16230  Biso   1.000  O
  O35      1.0000 0.92410  0.48780  0.11080  Biso   1.000  O
  N27      1.0000 0.80640  0.24180  0.18240  Biso   1.000  N
  N28      1.0000 0.78010  0.16200  0.16360  Biso   1.000  N
  N29      1.0000 0.74030  0.16870  0.18480  Biso   1.000  N
  C72      1.0000 0.90010  0.39980  0.19330  Biso   1.000  C
  C73      1.0000 0.91940  0.36850  0.21300  Biso   1.000  C
  H53      1.0000 0.95440  0.38290  0.22700  Biso   1.000  H
  C74      1.0000 0.88850  0.31630  0.21270  Biso   1.000  C
  H54      1.0000 0.90170  0.29510  0.23010  Biso   1.000  H
  C75      1.0000 0.83870  0.29580  0.18690  Biso   1.000  C
  C76      1.0000 0.81680  0.32940  0.17540  Biso   1.000  C
  H55      1.0000 0.78150  0.31650  0.17050  Biso   1.000  H
  C77      1.0000 0.85060  0.38010  0.17230  Biso   1.000  C
  H56      1.0000 0.83870  0.40240  0.15470  Biso   1.000  H
  C78      1.0000 0.82260  0.20770  0.16530  Biso   1.000  C
  H57      1.0000 0.85640  0.21490  0.15660  Biso   1.000  H
  C79      1.0000 0.75920  0.22040  0.19320  Biso   1.000  C
  O36      1.0000 0.94140  0.59690  0.08950  Biso   1.000  O
  O37      1.0000 0.97680  0.62620  0.87930  Biso   1.000  O
  O38      1.0000 0.87260  0.51330  0.25540  Biso   1.000  O
  O39      1.0000 0.96290  0.62330  0.49080  Biso   1.000  O
  O40      1.0000 0.83530  0.45670  0.44150  Biso   1.000  O
  N30      1.0000 0.72590  0.22590  0.95780  Biso   1.000  N
  N31      1.0000 0.64190  0.17070  0.98330  Biso   1.000  N
  C80      1.0000 0.87310  0.35150  0.92100  Biso   1.000  C
  C81      1.0000 0.82680  0.34470  0.92350  Biso   1.000  C
  H58      1.0000 0.82320  0.37370  0.91800  Biso   1.000  H
  C82      1.0000 0.78090  0.29580  0.93450  Biso   1.000  C
  H59      1.0000 0.74760  0.29050  0.93850  Biso   1.000  H
  C83      1.0000 0.79400  0.25790  0.93810  Biso   1.000  C
  C84      1.0000 0.83790  0.25940  0.93560  Biso   1.000  C
  H60      1.0000 0.84130  0.23010  0.93750  Biso   1.000  H
  C85      1.0000 0.88170  0.31210  0.92930  Biso   1.000  C
  H61      1.0000 0.91530  0.31810  0.93130  Biso   1.000  H
  C86      1.0000 0.71020  0.17370  0.95100  Biso   1.000  C
  H62      1.0000 0.73130  0.16000  0.93540  Biso   1.000  H
  C87      1.0000 0.68240  0.22320  0.98120  Biso   1.000  C
  H63      1.0000 0.67830  0.25150  0.99450  Biso   1.000  H
  N32      1.0000 0.76830  0.26870  0.19650  Biso   1.000  N
  N33      1.0000 0.71240  0.18910  0.21890  Biso   1.000  N
  N34      1.0000 0.69000  0.21760  0.23990  Biso   1.000  N
  C88      1.0000 0.89460  0.42140  0.18500  Biso   1.000  C
  C89      1.0000 0.89980  0.38360  0.19800  Biso   1.000  C
  H64      1.0000 0.93280  0.38880  0.20830  Biso   1.000  H
  C90      1.0000 0.85400  0.32860  0.19900  Biso   1.000  C
  H65      1.0000 0.86140  0.30370  0.22220  Biso   1.000  H
  C91      1.0000 0.81510  0.31440  0.17700  Biso   1.000  C
  C92      1.0000 0.80200  0.36350  0.17680  Biso   1.000  C
  H66      1.0000 0.76840  0.35740  0.18120  Biso   1.000  H
  C93      1.0000 0.84500  0.41460  0.16980  Biso   1.000  C
  H67      1.0000 0.84050  0.44250  0.15570  Biso   1.000  H
  C94      1.0000 0.72400  0.26510  0.22590  Biso   1.000  C
  H68      1.0000 0.71860  0.29280  0.23490  Biso   1.000  H
  O41      1.0000 0.93680  0.51350  0.11510  Biso   1.000  O
  O42      1.0000 0.90680  0.56050  0.25630  Biso   1.000  O
  O43      1.0000 0.96510  0.63490  0.42520  Biso   1.000  O
  O44      1.0000 0.83890  0.46050  0.39940  Biso   1.000  O
  O45      1.0000 0.99660  0.63160  0.84470  Biso   1.000  O
  O46      1.0000 0.96800  0.62400  0.06430  Biso   1.000  O
  La7      1.0000 0.46674  0.39284  0.41988  Biso   1.000  La
  La8      1.0000 0.51939  0.47124  0.68654  Biso   1.000  La
  La9      1.0000 0.45971  0.41019  0.95333  Biso   1.000  La
  P9       1.0000 0.44797  0.34890  0.69277  Biso   1.000  P
  O47      1.0000 0.47380  0.37940  0.59930  Biso   1.000  O
  O48      1.0000 0.47073  0.38737  0.77760  Biso   1.000  O
  O49      1.0000 0.39150  0.32160  0.68970  Biso   1.000  O
  N35      1.0000 0.52830  0.20700  0.66800  Biso   1.000  N
  N36      1.0000 0.53900  0.14140  0.65940  Biso   1.000  N
  N37      1.0000 0.58000  0.18190  0.61280  Biso   1.000  N
  C95      1.0000 0.46890  0.30360  0.70440  Biso   1.000  C
  C96      1.0000 0.43640  0.25220  0.68550  Biso   1.000  C
  H69      1.0000 0.40130  0.23980  0.67780  Biso   1.000  H
  C97      1.0000 0.45490  0.21900  0.67790  Biso   1.000  C
  H70      1.0000 0.43270  0.18400  0.66650  Biso   1.000  H
  C98      1.0000 0.50630  0.23820  0.68710  Biso   1.000  C
  C99      1.0000 0.53960  0.28900  0.71130  Biso   1.000  C
  H71      1.0000 0.57460  0.30110  0.72100  Biso   1.000  H
  C100     1.0000 0.51970  0.32090  0.72040  Biso   1.000  C
  H72      1.0000 0.54130  0.35520  0.73790  Biso   1.000  H
  C101     1.0000 0.50860  0.15720  0.69020  Biso   1.000  C
  H73      1.0000 0.47730  0.13680  0.72310  Biso   1.000  H
  C102     1.0000 0.57210  0.21940  0.62030  Biso   1.000  C
  H74      1.0000 0.59450  0.25220  0.59520  Biso   1.000  H
  P10      1.0000 0.57273  0.52593  0.48163  Biso   1.000  P
  O50      1.0000 0.57059  0.55011  0.58020  Biso   1.000  O
  O51      1.0000 0.55967  0.54869  0.39590  Biso   1.000  O
  O52      1.0000 0.53789  0.46908  0.49550  Biso   1.000  O
  N38      1.0000 0.78847  0.57330  0.43650  Biso   1.000  N
  N39      1.0000 0.85580  0.56570  0.43050  Biso   1.000  N
  N40      1.0000 0.87060  0.61580  0.41590  Biso   1.000  N
  C103     1.0000 0.63720  0.53970  0.46720  Biso   1.000  C
  C104     1.0000 0.64840  0.50310  0.43440  Biso   1.000  C
  H75      1.0000 0.62150  0.47030  0.41910  Biso   1.000  H
  C105     1.0000 0.69800  0.51350  0.42350  Biso   1.000  C
  H76      1.0000 0.70510  0.48830  0.40130  Biso   1.000  H
  C106     1.0000 0.73670  0.56160  0.44590  Biso   1.000  C
  C107     1.0000 0.72610  0.59820  0.47970  Biso   1.000  C
  H77      1.0000 0.75300  0.63090  0.49610  Biso   1.000  H
  C108     1.0000 0.67720  0.58740  0.48920  Biso   1.000  C
  H78      1.0000 0.67050  0.61290  0.51140  Biso   1.000  H
  C109     1.0000 0.80720  0.54170  0.44380  Biso   1.000  C
  H79      1.0000 0.78760  0.50660  0.45700  Biso   1.000  H
  C110     1.0000 0.83040  0.61940  0.41890  Biso   1.000  C
  H80      1.0000 0.82980  0.64990  0.41010  Biso   1.000  H
  P11      1.0000 0.58792  0.51608  0.89937  Biso   1.000  P
  O53      1.0000 0.59015  0.53390  0.79250  Biso   1.000  O
  O54      1.0000 0.54850  0.46040  0.89990  Biso   1.000  O
  O55      1.0000 0.58027  0.54760  0.97280  Biso   1.000  O
  N41      1.0000 0.79090  0.53240  0.95020  Biso   1.000  N
  N42      1.0000 0.87050  0.55910  0.94690  Biso   1.000  N
  C111     1.0000 0.64600  0.51420  0.92600  Biso   1.000  C
  C112     1.0000 0.64310  0.46470  0.92440  Biso   1.000  C
  H81      1.0000 0.61150  0.43450  0.91740  Biso   1.000  H
  C113     1.0000 0.68680  0.46320  0.93310  Biso   1.000  C
  H82      1.0000 0.68650  0.43200  0.93130  Biso   1.000  H
  C114     1.0000 0.73340  0.51060  0.94530  Biso   1.000  C
  C115     1.0000 0.73610  0.55710  0.94580  Biso   1.000  C
  H83      1.0000 0.76670  0.58820  0.95270  Biso   1.000  H
  C116     1.0000 0.69130  0.55360  0.93590  Biso   1.000  C
  H84      1.0000 0.69220  0.58510  0.93580  Biso   1.000  H
  C117     1.0000 0.83610  0.57540  0.93070  Biso   1.000  C
  H85      1.0000 0.84220  0.60780  0.91120  Biso   1.000  H
  C118     1.0000 0.80220  0.49860  0.97310  Biso   1.000  C
  H86      1.0000 0.77730  0.46520  0.99090  Biso   1.000  H
  N43      1.0000 0.85240  0.51400  0.97010  Biso   1.000  N
  P12      1.0000 0.52781  0.47355  0.18587  Biso   1.000  P
  O56      1.0000 0.50343  0.45680  0.28780  Biso   1.000  O
  O57      1.0000 0.52618  0.52113  0.16230  Biso   1.000  O
  O58      1.0000 0.51220  0.43630  0.11080  Biso   1.000  O
  N44      1.0000 0.75820  0.56460  0.18240  Biso   1.000  N
  N45      1.0000 0.83800  0.61810  0.16360  Biso   1.000  N
  N46      1.0000 0.83130  0.57160  0.18480  Biso   1.000  N
  C119     1.0000 0.60020  0.50030  0.19330  Biso   1.000  C
  C120     1.0000 0.63150  0.55090  0.21300  Biso   1.000  C
  H87      1.0000 0.61710  0.57150  0.22700  Biso   1.000  H
  C121     1.0000 0.68370  0.57220  0.21270  Biso   1.000  C
  H88      1.0000 0.70490  0.60660  0.23010  Biso   1.000  H
  C122     1.0000 0.70420  0.54290  0.18690  Biso   1.000  C
  C123     1.0000 0.67060  0.48740  0.17540  Biso   1.000  C
  H89      1.0000 0.68350  0.46500  0.17050  Biso   1.000  H
  C124     1.0000 0.61990  0.47050  0.17230  Biso   1.000  C
  H90      1.0000 0.59760  0.43630  0.15470  Biso   1.000  H
  C125     1.0000 0.79230  0.61490  0.16530  Biso   1.000  C
  H91      1.0000 0.78510  0.64150  0.15660  Biso   1.000  H
  C126     1.0000 0.77960  0.53880  0.19320  Biso   1.000  C
  O59      1.0000 0.40310  0.34450  0.08950  Biso   1.000  O
  O60      1.0000 0.37380  0.35060  0.87930  Biso   1.000  O
  O61      1.0000 0.48670  0.35930  0.25540  Biso   1.000  O
  O62      1.0000 0.37670  0.33960  0.49080  Biso   1.000  O
  O63      1.0000 0.54330  0.37860  0.44150  Biso   1.000  O
  N47      1.0000 0.77410  0.50000  0.95780  Biso   1.000  N
  N48      1.0000 0.82930  0.47120  0.98330  Biso   1.000  N
  C127     1.0000 0.64850  0.52160  0.92100  Biso   1.000  C
  C128     1.0000 0.65530  0.48210  0.92350  Biso   1.000  C
  H92      1.0000 0.62630  0.44950  0.91800  Biso   1.000  H
  C129     1.0000 0.70420  0.48510  0.93450  Biso   1.000  C
  H93      1.0000 0.70950  0.45710  0.93850  Biso   1.000  H
  C130     1.0000 0.74210  0.53610  0.93810  Biso   1.000  C
  C131     1.0000 0.74060  0.57850  0.93560  Biso   1.000  C
  H94      1.0000 0.76990  0.61120  0.93750  Biso   1.000  H
  C132     1.0000 0.68790  0.56960  0.92930  Biso   1.000  C
  H95      1.0000 0.68190  0.59720  0.93130  Biso   1.000  H
  C133     1.0000 0.82630  0.53650  0.95100  Biso   1.000  C
  H96      1.0000 0.84000  0.57130  0.93540  Biso   1.000  H
  C134     1.0000 0.77680  0.45920  0.98120  Biso   1.000  C
  H97      1.0000 0.74850  0.42680  0.99450  Biso   1.000  H
  N49      1.0000 0.73130  0.49960  0.19650  Biso   1.000  N
  N50      1.0000 0.81090  0.52330  0.21890  Biso   1.000  N
  N51      1.0000 0.78240  0.47240  0.23990  Biso   1.000  N
  C135     1.0000 0.57860  0.47320  0.18500  Biso   1.000  C
  C136     1.0000 0.61640  0.51620  0.19800  Biso   1.000  C
  H98      1.0000 0.61120  0.54400  0.20830  Biso   1.000  H
  C137     1.0000 0.67140  0.52540  0.19900  Biso   1.000  C
  H99      1.0000 0.69630  0.55770  0.22220  Biso   1.000  H
  C138     1.0000 0.68560  0.50070  0.17700  Biso   1.000  C
  C139     1.0000 0.63650  0.43850  0.17680  Biso   1.000  C
  H100     1.0000 0.64260  0.41100  0.18120  Biso   1.000  H
  C140     1.0000 0.58540  0.43040  0.16980  Biso   1.000  C
  H101     1.0000 0.55750  0.39800  0.15570  Biso   1.000  H
  C141     1.0000 0.73490  0.45890  0.22590  Biso   1.000  C
  H102     1.0000 0.70720  0.42580  0.23490  Biso   1.000  H
  O64      1.0000 0.48650  0.42330  0.11510  Biso   1.000  O
  O65      1.0000 0.43950  0.34630  0.25630  Biso   1.000  O
  O66      1.0000 0.36510  0.33020  0.42520  Biso   1.000  O
  O67      1.0000 0.53950  0.37840  0.39940  Biso   1.000  O
  O68      1.0000 0.36840  0.36500  0.84470  Biso   1.000  O
  O69      1.0000 0.37600  0.34400  0.06430  Biso   1.000  O
  La10     1.0000 0.39284  0.92610  0.58012  Biso   1.000  La
  La11     1.0000 0.47124  0.95184  0.31346  Biso   1.000  La
  La12     1.0000 0.41019  0.95049  0.04667  Biso   1.000  La
  P13      1.0000 0.34890  0.90093  0.30723  Biso   1.000  P
  O70      1.0000 0.37940  0.90560  0.40070  Biso   1.000  O
  O71      1.0000 0.38737  0.91664  0.22240  Biso   1.000  O
  O72      1.0000 0.32160  0.93010  0.31030  Biso   1.000  O
  N52      1.0000 0.20700  0.67870  0.33200  Biso   1.000  N
  N53      1.0000 0.14140  0.60240  0.34060  Biso   1.000  N
  N54      1.0000 0.18190  0.60190  0.38720  Biso   1.000  N
  C142     1.0000 0.30360  0.83470  0.29560  Biso   1.000  C
  C143     1.0000 0.25220  0.81580  0.31450  Biso   1.000  C
  H103     1.0000 0.23980  0.83850  0.32220  Biso   1.000  H
  C144     1.0000 0.21900  0.76410  0.32210  Biso   1.000  C
  H104     1.0000 0.18400  0.75130  0.33350  Biso   1.000  H
  C145     1.0000 0.23820  0.73190  0.31290  Biso   1.000  C
  C146     1.0000 0.28900  0.74940  0.28870  Biso   1.000  C
  H105     1.0000 0.30110  0.72650  0.27900  Biso   1.000  H
  C147     1.0000 0.32090  0.80120  0.27960  Biso   1.000  C
  H106     1.0000 0.35520  0.81390  0.26210  Biso   1.000  H
  C148     1.0000 0.15720  0.64860  0.30980  Biso   1.000  C
  H107     1.0000 0.13680  0.65950  0.27690  Biso   1.000  H
  C149     1.0000 0.21940  0.64730  0.37970  Biso   1.000  C
  H108     1.0000 0.25220  0.65770  0.40480  Biso   1.000  H
  P14      1.0000 0.52593  0.95320  0.51837  Biso   1.000  P
  O73      1.0000 0.55011  0.97952  0.41980  Biso   1.000  O
  O74      1.0000 0.54869  0.98902  0.60410  Biso   1.000  O
  O75      1.0000 0.46908  0.93119  0.50450  Biso   1.000  O
  N55      1.0000 0.57330  0.78483  0.56350  Biso   1.000  N
  N56      1.0000 0.56570  0.70990  0.56950  Biso   1.000  N
  N57      1.0000 0.61580  0.74520  0.58410  Biso   1.000  N
  C150     1.0000 0.53970  0.90250  0.53280  Biso   1.000  C
  C151     1.0000 0.50310  0.85470  0.56560  Biso   1.000  C
  H109     1.0000 0.47030  0.84880  0.58090  Biso   1.000  H
  C152     1.0000 0.51350  0.81550  0.57650  Biso   1.000  C
  H110     1.0000 0.48830  0.78320  0.59870  Biso   1.000  H
  C153     1.0000 0.56160  0.82490  0.55410  Biso   1.000  C
  C154     1.0000 0.59820  0.87210  0.52030  Biso   1.000  C
  H111     1.0000 0.63090  0.87790  0.50390  Biso   1.000  H
  C155     1.0000 0.58740  0.91020  0.51080  Biso   1.000  C
  H112     1.0000 0.61290  0.94240  0.48860  Biso   1.000  H
  C156     1.0000 0.54170  0.73450  0.55620  Biso   1.000  C
  H113     1.0000 0.50660  0.71900  0.54300  Biso   1.000  H
  C157     1.0000 0.61940  0.78900  0.58110  Biso   1.000  C
  H114     1.0000 0.64990  0.82010  0.58990  Biso   1.000  H
  P15      1.0000 0.51608  0.92816  0.10063  Biso   1.000  P
  O76      1.0000 0.53390  0.94375  0.20750  Biso   1.000  O
  O77      1.0000 0.46040  0.91190  0.10010  Biso   1.000  O
  O78      1.0000 0.54760  0.96733  0.02720  Biso   1.000  O
  N58      1.0000 0.53240  0.74150  0.04980  Biso   1.000  N
  N59      1.0000 0.55910  0.68860  0.05310  Biso   1.000  N
  C158     1.0000 0.51420  0.86820  0.07400  Biso   1.000  C
  C159     1.0000 0.46470  0.82160  0.07560  Biso   1.000  C
  H115     1.0000 0.43450  0.82300  0.08260  Biso   1.000  H
  C160     1.0000 0.46320  0.77640  0.06690  Biso   1.000  C
  H116     1.0000 0.43200  0.74550  0.06870  Biso   1.000  H
  C161     1.0000 0.51060  0.77720  0.05470  Biso   1.000  C
  C162     1.0000 0.55710  0.82100  0.05420  Biso   1.000  C
  H117     1.0000 0.58820  0.82150  0.04730  Biso   1.000  H
  C163     1.0000 0.55360  0.86230  0.06410  Biso   1.000  C
  H118     1.0000 0.58510  0.89290  0.06420  Biso   1.000  H
  C164     1.0000 0.57540  0.73930  0.06930  Biso   1.000  C
  H119     1.0000 0.60780  0.76560  0.08880  Biso   1.000  H
  C165     1.0000 0.49860  0.69640  0.02690  Biso   1.000  C
  H120     1.0000 0.46520  0.68790  0.00910  Biso   1.000  H
  N60      1.0000 0.51400  0.66160  0.02990  Biso   1.000  N
  P16      1.0000 0.47355  0.94574  0.81413  Biso   1.000  P
  O79      1.0000 0.45680  0.95337  0.71220  Biso   1.000  O
  O80      1.0000 0.52113  0.99495  0.83770  Biso   1.000  O
  O81      1.0000 0.43630  0.92410  0.88920  Biso   1.000  O
  N61      1.0000 0.56460  0.80640  0.81760  Biso   1.000  N
  N62      1.0000 0.61810  0.78010  0.83640  Biso   1.000  N
  N63      1.0000 0.57160  0.74030  0.81520  Biso   1.000  N
  C166     1.0000 0.50030  0.90010  0.80670  Biso   1.000  C
  C167     1.0000 0.55090  0.91940  0.78700  Biso   1.000  C
  H121     1.0000 0.57150  0.95440  0.77300  Biso   1.000  H
  C168     1.0000 0.57220  0.88850  0.78730  Biso   1.000  C
  H122     1.0000 0.60660  0.90170  0.76990  Biso   1.000  H
  C169     1.0000 0.54290  0.83870  0.81310  Biso   1.000  C
  C170     1.0000 0.48740  0.81680  0.82460  Biso   1.000  C
  H123     1.0000 0.46500  0.78150  0.82950  Biso   1.000  H
  C171     1.0000 0.47050  0.85060  0.82770  Biso   1.000  C
  H124     1.0000 0.43630  0.83870  0.84530  Biso   1.000  H
  C172     1.0000 0.61490  0.82260  0.83470  Biso   1.000  C
  H125     1.0000 0.64150  0.85640  0.84340  Biso   1.000  H
  C173     1.0000 0.53880  0.75920  0.80680  Biso   1.000  C
  O82      1.0000 0.34450  0.94140  0.91050  Biso   1.000  O
  O83      1.0000 0.35060  0.97680  0.12070  Biso   1.000  O
  O84      1.0000 0.35930  0.87260  0.74460  Biso   1.000  O
  O85      1.0000 0.33960  0.96290  0.50920  Biso   1.000  O
  O86      1.0000 0.37860  0.83530  0.55850  Biso   1.000  O
  N64      1.0000 0.50000  0.72590  0.04220  Biso   1.000  N
  N65      1.0000 0.47120  0.64190  0.01670  Biso   1.000  N
  C174     1.0000 0.52160  0.87310  0.07900  Biso   1.000  C
  C175     1.0000 0.48210  0.82680  0.07650  Biso   1.000  C
  H126     1.0000 0.44950  0.82320  0.08200  Biso   1.000  H
  C176     1.0000 0.48510  0.78090  0.06550  Biso   1.000  C
  H127     1.0000 0.45710  0.74760  0.06150  Biso   1.000  H
  C177     1.0000 0.53610  0.79400  0.06190  Biso   1.000  C
  C178     1.0000 0.57850  0.83790  0.06440  Biso   1.000  C
  H128     1.0000 0.61120  0.84130  0.06250  Biso   1.000  H
  C179     1.0000 0.56960  0.88170  0.07070  Biso   1.000  C
  H129     1.0000 0.59720  0.91530  0.06870  Biso   1.000  H
  C180     1.0000 0.53650  0.71020  0.04900  Biso   1.000  C
  H130     1.0000 0.57130  0.73130  0.06460  Biso   1.000  H
  C181     1.0000 0.45920  0.68240  0.01880  Biso   1.000  C
  H131     1.0000 0.42680  0.67830  0.00550  Biso   1.000  H
  N66      1.0000 0.49960  0.76830  0.80350  Biso   1.000  N
  N67      1.0000 0.52330  0.71240  0.78110  Biso   1.000  N
  N68      1.0000 0.47240  0.69000  0.76010  Biso   1.000  N
  C182     1.0000 0.47320  0.89460  0.81500  Biso   1.000  C
  C183     1.0000 0.51620  0.89980  0.80200  Biso   1.000  C
  H132     1.0000 0.54400  0.93280  0.79170  Biso   1.000  H
  C184     1.0000 0.52540  0.85400  0.80100  Biso   1.000  C
  H133     1.0000 0.55770  0.86140  0.77780  Biso   1.000  H
  C185     1.0000 0.50070  0.81510  0.82300  Biso   1.000  C
  C186     1.0000 0.43850  0.80200  0.82320  Biso   1.000  C
  H134     1.0000 0.41100  0.76840  0.81880  Biso   1.000  H
  C187     1.0000 0.43040  0.84500  0.83020  Biso   1.000  C
  H135     1.0000 0.39800  0.84050  0.84430  Biso   1.000  H
  C188     1.0000 0.45890  0.72400  0.77410  Biso   1.000  C
  H136     1.0000 0.42580  0.71860  0.76510  Biso   1.000  H
  O87      1.0000 0.42330  0.93680  0.88490  Biso   1.000  O
  O88      1.0000 0.34630  0.90680  0.74370  Biso   1.000  O
  O89      1.0000 0.33020  0.96510  0.57480  Biso   1.000  O
  O90      1.0000 0.37840  0.83890  0.60060  Biso   1.000  O
  O91      1.0000 0.36500  0.99660  0.15530  Biso   1.000  O
  O92      1.0000 0.34400  0.96800  0.93570  Biso   1.000  O
  La13     1.0000 0.07390  0.46674  0.58012  Biso   1.000  La
  La14     1.0000 0.04816  0.51940  0.31346  Biso   1.000  La
  La15     1.0000 0.04951  0.45970  0.04667  Biso   1.000  La
  P17      1.0000 0.09907  0.44797  0.30723  Biso   1.000  P
  O93      1.0000 0.09440  0.47380  0.40070  Biso   1.000  O
  O94      1.0000 0.08336  0.47073  0.22240  Biso   1.000  O
  O95      1.0000 0.06990  0.39150  0.31030  Biso   1.000  O
  N69      1.0000 0.32130  0.52830  0.33200  Biso   1.000  N
  N70      1.0000 0.39760  0.53900  0.34060  Biso   1.000  N
  N71      1.0000 0.39810  0.58000  0.38720  Biso   1.000  N
  C189     1.0000 0.16530  0.46890  0.29560  Biso   1.000  C
  C190     1.0000 0.18420  0.43640  0.31450  Biso   1.000  C
  H137     1.0000 0.16150  0.40130  0.32220  Biso   1.000  H
  C191     1.0000 0.23590  0.45490  0.32210  Biso   1.000  C
  H138     1.0000 0.24870  0.43270  0.33350  Biso   1.000  H
  C192     1.0000 0.26810  0.50630  0.31290  Biso   1.000  C
  C193     1.0000 0.25060  0.53960  0.28870  Biso   1.000  C
  H139     1.0000 0.27350  0.57460  0.27900  Biso   1.000  H
  C194     1.0000 0.19880  0.51970  0.27960  Biso   1.000  C
  H140     1.0000 0.18610  0.54130  0.26210  Biso   1.000  H
  C195     1.0000 0.35140  0.50860  0.30980  Biso   1.000  C
  H141     1.0000 0.34050  0.47730  0.27690  Biso   1.000  H
  C196     1.0000 0.35270  0.57210  0.37970  Biso   1.000  C
  H142     1.0000 0.34230  0.59450  0.40480  Biso   1.000  H
  P18      1.0000 0.04680  0.57273  0.51837  Biso   1.000  P
  O96      1.0000 0.02048  0.57059  0.41980  Biso   1.000  O
  O97      1.0000 0.01098  0.55967  0.60410  Biso   1.000  O
  O98      1.0000 0.06881  0.53789  0.50450  Biso   1.000  O
  N72      1.0000 0.21517  0.78847  0.56350  Biso   1.000  N
  N73      1.0000 0.29010  0.85580  0.56950  Biso   1.000  N
  N74      1.0000 0.25480  0.87060  0.58410  Biso   1.000  N
  C197     1.0000 0.09750  0.63720  0.53280  Biso   1.000  C
  C198     1.0000 0.14530  0.64840  0.56560  Biso   1.000  C
  H143     1.0000 0.15120  0.62150  0.58090  Biso   1.000  H
  C199     1.0000 0.18450  0.69800  0.57650  Biso   1.000  C
  H144     1.0000 0.21680  0.70510  0.59870  Biso   1.000  H
  C200     1.0000 0.17510  0.73670  0.55410  Biso   1.000  C
  C201     1.0000 0.12790  0.72610  0.52030  Biso   1.000  C
  H145     1.0000 0.12210  0.75300  0.50390  Biso   1.000  H
  C202     1.0000 0.08980  0.67720  0.51080  Biso   1.000  C
  H146     1.0000 0.05760  0.67050  0.48860  Biso   1.000  H
  C203     1.0000 0.26550  0.80720  0.55620  Biso   1.000  C
  H147     1.0000 0.28100  0.78760  0.54300  Biso   1.000  H
  C204     1.0000 0.21100  0.83040  0.58110  Biso   1.000  C
  H148     1.0000 0.17990  0.82980  0.58990  Biso   1.000  H
  P19      1.0000 0.07184  0.58792  0.10063  Biso   1.000  P
  O99      1.0000 0.05625  0.59015  0.20750  Biso   1.000  O
  O100     1.0000 0.08810  0.54850  0.10010  Biso   1.000  O
  O101     1.0000 0.03267  0.58027  0.02720  Biso   1.000  O
  N75      1.0000 0.25850  0.79090  0.04980  Biso   1.000  N
  N76      1.0000 0.31140  0.87050  0.05310  Biso   1.000  N
  C205     1.0000 0.13180  0.64600  0.07400  Biso   1.000  C
  C206     1.0000 0.17840  0.64310  0.07560  Biso   1.000  C
  H149     1.0000 0.17700  0.61150  0.08260  Biso   1.000  H
  C207     1.0000 0.22360  0.68680  0.06690  Biso   1.000  C
  H150     1.0000 0.25450  0.68650  0.06870  Biso   1.000  H
  C208     1.0000 0.22280  0.73340  0.05470  Biso   1.000  C
  C209     1.0000 0.17900  0.73610  0.05420  Biso   1.000  C
  H151     1.0000 0.17850  0.76670  0.04730  Biso   1.000  H
  C210     1.0000 0.13770  0.69130  0.06410  Biso   1.000  C
  H152     1.0000 0.10710  0.69220  0.06420  Biso   1.000  H
  C211     1.0000 0.26070  0.83610  0.06930  Biso   1.000  C
  H153     1.0000 0.23440  0.84220  0.08880  Biso   1.000  H
  C212     1.0000 0.30360  0.80220  0.02690  Biso   1.000  C
  H154     1.0000 0.31210  0.77730  0.00910  Biso   1.000  H
  N77      1.0000 0.33840  0.85240  0.02990  Biso   1.000  N
  P20      1.0000 0.05426  0.52781  0.81413  Biso   1.000  P
  O102     1.0000 0.04663  0.50343  0.71220  Biso   1.000  O
  O103     1.0000 0.00505  0.52618  0.83770  Biso   1.000  O
  O104     1.0000 0.07590  0.51220  0.88920  Biso   1.000  O
  N78      1.0000 0.19360  0.75820  0.81760  Biso   1.000  N
  N79      1.0000 0.21990  0.83800  0.83640  Biso   1.000  N
  N80      1.0000 0.25970  0.83130  0.81520  Biso   1.000  N
  C213     1.0000 0.09990  0.60020  0.80670  Biso   1.000  C
  C214     1.0000 0.08060  0.63150  0.78700  Biso   1.000  C
  H155     1.0000 0.04560  0.61710  0.77300  Biso   1.000  H
  C215     1.0000 0.11150  0.68370  0.78730  Biso   1.000  C
  H156     1.0000 0.09830  0.70490  0.76990  Biso   1.000  H
  C216     1.0000 0.16130  0.70420  0.81310  Biso   1.000  C
  C217     1.0000 0.18320  0.67060  0.82460  Biso   1.000  C
  H157     1.0000 0.21850  0.68350  0.82950  Biso   1.000  H
  C218     1.0000 0.14940  0.61990  0.82770  Biso   1.000  C
  H158     1.0000 0.16130  0.59760  0.84530  Biso   1.000  H
  C219     1.0000 0.17740  0.79230  0.83470  Biso   1.000  C
  H159     1.0000 0.14360  0.78510  0.84340  Biso   1.000  H
  C220     1.0000 0.24080  0.77960  0.80680  Biso   1.000  C
  O105     1.0000 0.05860  0.40310  0.91050  Biso   1.000  O
  O106     1.0000 0.02320  0.37380  0.12070  Biso   1.000  O
  O107     1.0000 0.12740  0.48670  0.74460  Biso   1.000  O
  O108     1.0000 0.03710  0.37670  0.50920  Biso   1.000  O
  O109     1.0000 0.16470  0.54330  0.55850  Biso   1.000  O
  N81      1.0000 0.27410  0.77410  0.04220  Biso   1.000  N
  N82      1.0000 0.35810  0.82930  0.01670  Biso   1.000  N
  C221     1.0000 0.12690  0.64850  0.07900  Biso   1.000  C
  C222     1.0000 0.17320  0.65530  0.07650  Biso   1.000  C
  H160     1.0000 0.17680  0.62630  0.08200  Biso   1.000  H
  C223     1.0000 0.21910  0.70420  0.06550  Biso   1.000  C
  H161     1.0000 0.25240  0.70950  0.06150  Biso   1.000  H
  C224     1.0000 0.20600  0.74210  0.06190  Biso   1.000  C
  C225     1.0000 0.16210  0.74060  0.06440  Biso   1.000  C
  H162     1.0000 0.15870  0.76990  0.06250  Biso   1.000  H
  C226     1.0000 0.11830  0.68790  0.07070  Biso   1.000  C
  H163     1.0000 0.08470  0.68190  0.06870  Biso   1.000  H
  C227     1.0000 0.28980  0.82630  0.04900  Biso   1.000  C
  H164     1.0000 0.26870  0.84000  0.06460  Biso   1.000  H
  C228     1.0000 0.31760  0.77680  0.01880  Biso   1.000  C
  H165     1.0000 0.32170  0.74850  0.00550  Biso   1.000  H
  N83      1.0000 0.23170  0.73130  0.80350  Biso   1.000  N
  N84      1.0000 0.28760  0.81090  0.78110  Biso   1.000  N
  N85      1.0000 0.31000  0.78240  0.76010  Biso   1.000  N
  C229     1.0000 0.10540  0.57860  0.81500  Biso   1.000  C
  C230     1.0000 0.10020  0.61640  0.80200  Biso   1.000  C
  H166     1.0000 0.06720  0.61120  0.79170  Biso   1.000  H
  C231     1.0000 0.14600  0.67140  0.80100  Biso   1.000  C
  H167     1.0000 0.13860  0.69630  0.77780  Biso   1.000  H
  C232     1.0000 0.18490  0.68560  0.82300  Biso   1.000  C
  C233     1.0000 0.19800  0.63650  0.82320  Biso   1.000  C
  H168     1.0000 0.23160  0.64260  0.81880  Biso   1.000  H
  C234     1.0000 0.15500  0.58540  0.83020  Biso   1.000  C
  H169     1.0000 0.15950  0.55750  0.84430  Biso   1.000  H
  C235     1.0000 0.27600  0.73490  0.77410  Biso   1.000  C
  H170     1.0000 0.28140  0.70720  0.76510  Biso   1.000  H
  O110     1.0000 0.06320  0.48650  0.88490  Biso   1.000  O
  O111     1.0000 0.09320  0.43950  0.74370  Biso   1.000  O
  O112     1.0000 0.03490  0.36510  0.57480  Biso   1.000  O
  O113     1.0000 0.16110  0.53950  0.60060  Biso   1.000  O
  O114     1.0000 0.00340  0.36840  0.15530  Biso   1.000  O
  O115     1.0000 0.03200  0.37600  0.93570  Biso   1.000  O
  La16     1.0000 0.53326  0.60716  0.58012  Biso   1.000  La
  La17     1.0000 0.48061  0.52876  0.31346  Biso   1.000  La
  La18     1.0000 0.54030  0.58981  0.04667  Biso   1.000  La
  P21      1.0000 0.55203  0.65110  0.30723  Biso   1.000  P
  O116     1.0000 0.52620  0.62060  0.40070  Biso   1.000  O
  O117     1.0000 0.52927  0.61263  0.22240  Biso   1.000  O
  O118     1.0000 0.60850  0.67840  0.31030  Biso   1.000  O
  N86      1.0000 0.47170  0.79300  0.33200  Biso   1.000  N
  N87      1.0000 0.46100  0.85860  0.34060  Biso   1.000  N
  N88      1.0000 0.42000  0.81810  0.38720  Biso   1.000  N
  C236     1.0000 0.53110  0.69640  0.29560  Biso   1.000  C
  C237     1.0000 0.56360  0.74780  0.31450  Biso   1.000  C
  H171     1.0000 0.59870  0.76020  0.32220  Biso   1.000  H
  C238     1.0000 0.54510  0.78100  0.32210  Biso   1.000  C
  H172     1.0000 0.56730  0.81600  0.33350  Biso   1.000  H
  C239     1.0000 0.49370  0.76180  0.31290  Biso   1.000  C
  C240     1.0000 0.46040  0.71100  0.28870  Biso   1.000  C
  H173     1.0000 0.42540  0.69890  0.27900  Biso   1.000  H
  C241     1.0000 0.48030  0.67910  0.27960  Biso   1.000  C
  H174     1.0000 0.45870  0.64480  0.26210  Biso   1.000  H
  C242     1.0000 0.49140  0.84280  0.30980  Biso   1.000  C
  H175     1.0000 0.52270  0.86320  0.27690  Biso   1.000  H
  C243     1.0000 0.42790  0.78060  0.37970  Biso   1.000  C
  H176     1.0000 0.40550  0.74780  0.40480  Biso   1.000  H
  P22      1.0000 0.42727  0.47407  0.51837  Biso   1.000  P
  O119     1.0000 0.42941  0.44989  0.41980  Biso   1.000  O
  O120     1.0000 0.44033  0.45131  0.60410  Biso   1.000  O
  O121     1.0000 0.46211  0.53092  0.50450  Biso   1.000  O
  N89      1.0000 0.21153  0.42670  0.56350  Biso   1.000  N
  N90      1.0000 0.14420  0.43430  0.56950  Biso   1.000  N
  N91      1.0000 0.12940  0.38420  0.58410  Biso   1.000  N
  C244     1.0000 0.36280  0.46030  0.53280  Biso   1.000  C
  C245     1.0000 0.35160  0.49690  0.56560  Biso   1.000  C
  H177     1.0000 0.37850  0.52970  0.58090  Biso   1.000  H
  C246     1.0000 0.30200  0.48650  0.57650  Biso   1.000  C
  H178     1.0000 0.29490  0.51170  0.59870  Biso   1.000  H
  C247     1.0000 0.26330  0.43840  0.55410  Biso   1.000  C
  C248     1.0000 0.27390  0.40180  0.52030  Biso   1.000  C
  H179     1.0000 0.24700  0.36910  0.50390  Biso   1.000  H
  C249     1.0000 0.32280  0.41260  0.51080  Biso   1.000  C
  H180     1.0000 0.32950  0.38710  0.48860  Biso   1.000  H
  C250     1.0000 0.19280  0.45830  0.55620  Biso   1.000  C
  H181     1.0000 0.21240  0.49340  0.54300  Biso   1.000  H
  C251     1.0000 0.16960  0.38060  0.58110  Biso   1.000  C
  H182     1.0000 0.17020  0.35010  0.58990  Biso   1.000  H
  P23      1.0000 0.41208  0.48392  0.10063  Biso   1.000  P
  O122     1.0000 0.40985  0.46610  0.20750  Biso   1.000  O
  O123     1.0000 0.45150  0.53960  0.10010  Biso   1.000  O
  O124     1.0000 0.41973  0.45240  0.02720  Biso   1.000  O
  N92      1.0000 0.20910  0.46760  0.04980  Biso   1.000  N
  N93      1.0000 0.12950  0.44090  0.05310  Biso   1.000  N
  C252     1.0000 0.35400  0.48580  0.07400  Biso   1.000  C
  C253     1.0000 0.35690  0.53530  0.07560  Biso   1.000  C
  H183     1.0000 0.38850  0.56550  0.08260  Biso   1.000  H
  C254     1.0000 0.31320  0.53680  0.06690  Biso   1.000  C
  H184     1.0000 0.31350  0.56800  0.06870  Biso   1.000  H
  C255     1.0000 0.26660  0.48940  0.05470  Biso   1.000  C
  C256     1.0000 0.26390  0.44290  0.05420  Biso   1.000  C
  H185     1.0000 0.23330  0.41180  0.04730  Biso   1.000  H
  C257     1.0000 0.30870  0.44640  0.06410  Biso   1.000  C
  H186     1.0000 0.30780  0.41490  0.06420  Biso   1.000  H
  C258     1.0000 0.16390  0.42460  0.06930  Biso   1.000  C
  H187     1.0000 0.15780  0.39220  0.08880  Biso   1.000  H
  C259     1.0000 0.19780  0.50140  0.02690  Biso   1.000  C
  H188     1.0000 0.22270  0.53480  0.00910  Biso   1.000  H
  N94      1.0000 0.14760  0.48600  0.02990  Biso   1.000  N
  P24      1.0000 0.47219  0.52645  0.81413  Biso   1.000  P
  O125     1.0000 0.49657  0.54320  0.71220  Biso   1.000  O
  O126     1.0000 0.47382  0.47887  0.83770  Biso   1.000  O
  O127     1.0000 0.48780  0.56370  0.88920  Biso   1.000  O
  N95      1.0000 0.24180  0.43540  0.81760  Biso   1.000  N
  N96      1.0000 0.16200  0.38190  0.83640  Biso   1.000  N
  N97      1.0000 0.16870  0.42840  0.81520  Biso   1.000  N
  C260     1.0000 0.39980  0.49970  0.80670  Biso   1.000  C
  C261     1.0000 0.36850  0.44910  0.78700  Biso   1.000  C
  H189     1.0000 0.38290  0.42850  0.77300  Biso   1.000  H
  C262     1.0000 0.31630  0.42780  0.78730  Biso   1.000  C
  H190     1.0000 0.29510  0.39340  0.76990  Biso   1.000  H
  C263     1.0000 0.29580  0.45710  0.81310  Biso   1.000  C
  C264     1.0000 0.32940  0.51260  0.82460  Biso   1.000  C
  H191     1.0000 0.31650  0.53500  0.82950  Biso   1.000  H
  C265     1.0000 0.38010  0.52950  0.82770  Biso   1.000  C
  H192     1.0000 0.40240  0.56370  0.84530  Biso   1.000  H
  C266     1.0000 0.20770  0.38510  0.83470  Biso   1.000  C
  H193     1.0000 0.21490  0.35850  0.84340  Biso   1.000  H
  C267     1.0000 0.22040  0.46120  0.80680  Biso   1.000  C
  O128     1.0000 0.59690  0.65550  0.91050  Biso   1.000  O
  O129     1.0000 0.62620  0.64940  0.12070  Biso   1.000  O
  O130     1.0000 0.51330  0.64070  0.74460  Biso   1.000  O
  O131     1.0000 0.62330  0.66040  0.50920  Biso   1.000  O
  O132     1.0000 0.45670  0.62140  0.55850  Biso   1.000  O
  N98      1.0000 0.22590  0.50000  0.04220  Biso   1.000  N
  N99      1.0000 0.17070  0.52880  0.01670  Biso   1.000  N
  C268     1.0000 0.35150  0.47840  0.07900  Biso   1.000  C
  C269     1.0000 0.34470  0.51790  0.07650  Biso   1.000  C
  H194     1.0000 0.37370  0.55050  0.08200  Biso   1.000  H
  C270     1.0000 0.29580  0.51490  0.06550  Biso   1.000  C
  H195     1.0000 0.29050  0.54290  0.06150  Biso   1.000  H
  C271     1.0000 0.25790  0.46390  0.06190  Biso   1.000  C
  C272     1.0000 0.25940  0.42150  0.06440  Biso   1.000  C
  H196     1.0000 0.23010  0.38880  0.06250  Biso   1.000  H
  C273     1.0000 0.31210  0.43040  0.07070  Biso   1.000  C
  H197     1.0000 0.31810  0.40280  0.06870  Biso   1.000  H
  C274     1.0000 0.17370  0.46350  0.04900  Biso   1.000  C
  H198     1.0000 0.16000  0.42870  0.06460  Biso   1.000  H
  C275     1.0000 0.22320  0.54080  0.01880  Biso   1.000  C
  H199     1.0000 0.25150  0.57320  0.00550  Biso   1.000  H
  N100     1.0000 0.26870  0.50040  0.80350  Biso   1.000  N
  N101     1.0000 0.18910  0.47670  0.78110  Biso   1.000  N
  N102     1.0000 0.21760  0.52760  0.76010  Biso   1.000  N
  C276     1.0000 0.42140  0.52680  0.81500  Biso   1.000  C
  C277     1.0000 0.38360  0.48380  0.80200  Biso   1.000  C
  H200     1.0000 0.38880  0.45600  0.79170  Biso   1.000  H
  C278     1.0000 0.32860  0.47460  0.80100  Biso   1.000  C
  H201     1.0000 0.30370  0.44230  0.77780  Biso   1.000  H
  C279     1.0000 0.31440  0.49930  0.82300  Biso   1.000  C
  C280     1.0000 0.36350  0.56150  0.82320  Biso   1.000  C
  H202     1.0000 0.35740  0.58900  0.81880  Biso   1.000  H
  C281     1.0000 0.41460  0.56960  0.83020  Biso   1.000  C
  H203     1.0000 0.44250  0.60200  0.84430  Biso   1.000  H
  C282     1.0000 0.26510  0.54110  0.77410  Biso   1.000  C
  H204     1.0000 0.29280  0.57420  0.76510  Biso   1.000  H
  O133     1.0000 0.51350  0.57670  0.88490  Biso   1.000  O
  O134     1.0000 0.56050  0.65370  0.74370  Biso   1.000  O
  O135     1.0000 0.63490  0.66980  0.57480  Biso   1.000  O
  O136     1.0000 0.46050  0.62160  0.60060  Biso   1.000  O
  O137     1.0000 0.63160  0.63500  0.15530  Biso   1.000  O
  O138     1.0000 0.62400  0.65600  0.93570  Biso   1.000  O
