data_image0
_cell_length_a       34.346
_cell_length_b       15.114
_cell_length_c       32.5502
_cell_angle_alpha    90
_cell_angle_beta     103.415
_cell_angle_gamma    90

_symmetry_space_group_name_H-M    "P 1"
_symmetry_int_tables_number       1

loop_
  _symmetry_equiv_pos_as_xyz
  'x, y, z'

loop_
  _atom_site_label
  _atom_site_occupancy
  _atom_site_fract_x
  _atom_site_fract_y
  _atom_site_fract_z
  _atom_site_thermal_displace_type
  _atom_site_B_iso_or_equiv
  _atom_site_type_symbol
  C1       1.0000 0.53120  0.54680  0.54700  Biso   1.000  C
  H1       1.0000 0.51070  0.53840  0.56190  Biso   1.000  H
  C2       1.0000 0.52780  0.61620  0.51910  Biso   1.000  C
  H2       1.0000 0.50520  0.65410  0.51430  Biso   1.000  H
  C3       1.0000 0.55790  0.63020  0.49800  Biso   1.000  C
  C4       1.0000 0.58940  0.57040  0.50390  Biso   1.000  C
  H3       1.0000 0.60990  0.57690  0.48890  Biso   1.000  H
  C5       1.0000 0.59040  0.50140  0.53190  Biso   1.000  C
  H4       1.0000 0.61180  0.46020  0.53570  Biso   1.000  H
  C6       1.0000 0.55590  0.70810  0.46940  Biso   1.000  C
  C7       1.0000 0.52350  0.83230  0.44270  Biso   1.000  C
  C8       1.0000 0.57540  0.78110  0.41800  Biso   1.000  C
  C9       1.0000 0.66730  0.79560  0.37440  Biso   1.000  C
  H5       1.0000 0.69510  0.78290  0.38320  Biso   1.000  H
  C10      1.0000 0.64290  0.77700  0.40130  Biso   1.000  C
  H6       1.0000 0.65390  0.75200  0.42820  Biso   1.000  H
  C11      1.0000 0.60240  0.79450  0.38930  Biso   1.000  C
  C12      1.0000 0.58700  0.83080  0.34900  Biso   1.000  C
  H7       1.0000 0.55940  0.84500  0.33960  Biso   1.000  H
  C13      1.0000 0.61380  0.84500  0.32360  Biso   1.000  C
  H8       1.0000 0.60340  0.86580  0.29570  Biso   1.000  H
  C14      1.0000 0.45070  0.01760  0.41190  Biso   1.000  C
  H9       1.0000 0.44370  0.05900  0.38950  Biso   1.000  H
  C15      1.0000 0.48230  0.96210  0.41240  Biso   1.000  C
  H10      1.0000 0.49760  0.96800  0.39180  Biso   1.000  H
  C16      1.0000 0.49160  0.89820  0.44270  Biso   1.000  C
  C17      1.0000 0.47110  0.89940  0.47430  Biso   1.000  C
  H11      1.0000 0.47800  0.85910  0.49730  Biso   1.000  H
  C18      1.0000 0.44040  0.95900  0.47270  Biso   1.000  C
  H12      1.0000 0.42650  0.95920  0.49480  Biso   1.000  H
  C19      1.0000 0.33560  0.94410  0.38940  Biso   1.000  C
  H13      1.0000 0.35450  0.91200  0.41000  Biso   1.000  H
  C20      1.0000 0.30640  0.89750  0.36220  Biso   1.000  C
  H14      1.0000 0.30540  0.83480  0.36400  Biso   1.000  H
  C21      1.0000 0.27830  0.94270  0.33230  Biso   1.000  C
  C22      1.0000 0.28180  0.03410  0.33050  Biso   1.000  C
  H15      1.0000 0.26360  0.06750  0.30990  Biso   1.000  H
  C23      1.0000 0.31220  0.07540  0.35930  Biso   1.000  C
  H16      1.0000 0.31410  0.13800  0.35820  Biso   1.000  H
  C24      1.0000 0.24540  0.89470  0.30310  Biso   1.000  C
  C25      1.0000 0.21000  0.77120  0.28280  Biso   1.000  C
  C26      1.0000 0.19210  0.89830  0.24710  Biso   1.000  C
  C27      1.0000 0.14530  0.07700  0.17120  Biso   1.000  C
  H17      1.0000 0.15030  0.13710  0.16560  Biso   1.000  H
  C28      1.0000 0.17150  0.03410  0.20370  Biso   1.000  C
  H18      1.0000 0.19390  0.06470  0.22010  Biso   1.000  H
  C29      1.0000 0.16500  0.94810  0.21220  Biso   1.000  C
  C30      1.0000 0.13300  0.90610  0.18710  Biso   1.000  C
  H19      1.0000 0.12830  0.84530  0.19140  Biso   1.000  H
  C31      1.0000 0.10770  0.95260  0.15530  Biso   1.000  C
  H20      1.0000 0.08530  0.92270  0.13840  Biso   1.000  H
  C32      1.0000 0.17420  0.53860  0.26070  Biso   1.000  C
  H21      1.0000 0.15640  0.50730  0.23880  Biso   1.000  H
  C33      1.0000 0.17750  0.62860  0.25620  Biso   1.000  C
  H22      1.0000 0.16170  0.65860  0.23240  Biso   1.000  H
  C34      1.0000 0.20420  0.67370  0.28700  Biso   1.000  C
  C35      1.0000 0.22550  0.62580  0.32050  Biso   1.000  C
  H23      1.0000 0.24430  0.65440  0.34250  Biso   1.000  H
  C36      1.0000 0.21960  0.53670  0.32220  Biso   1.000  C
  H24      1.0000 0.23470  0.50460  0.34560  Biso   1.000  H
  N1       1.0000 0.65300  0.83140  0.33580  Biso   1.000  N
  N2       1.0000 0.56229  0.49040  0.55409  Biso   1.000  N
  N3       1.0000 0.42972  0.01660  0.44090  Biso   1.000  N
  N4       1.0000 0.58204  0.71400  0.44474  Biso   1.000  N
  N5       1.0000 0.52723  0.76660  0.47120  Biso   1.000  N
  N6       1.0000 0.54561  0.84100  0.41410  Biso   1.000  N
  N7       1.0000 0.33910  0.03210  0.38860  Biso   1.000  N
  N8       1.0000 0.22245  0.94320  0.27151  Biso   1.000  N
  N9       1.0000 0.24058  0.80920  0.30995  Biso   1.000  N
  N10      1.0000 0.18432  0.81250  0.25132  Biso   1.000  N
  N11      1.0000 0.19400  0.49350  0.29300  Biso   1.000  N
  N12      1.0000 0.11310  0.03690  0.14740  Biso   1.000  N
  Zn1      1.0000 0.69042  0.85601  0.29590  Biso   1.000  Zn
  I1       1.0000 0.65240  0.80487  0.22347  Biso   1.000  I
  I2       1.0000 0.75902  0.79230  0.32775  Biso   1.000  I
  Zn2      1.0000 0.56820  0.40030  0.60180  Biso   1.000  Zn
  I3       1.0000 0.60473  0.26460  0.58410  Biso   1.000  I
  I4       1.0000 0.50434  0.39430  0.62818  Biso   1.000  I
  Zn3      1.0000 0.38031  0.09641  0.43487  Biso   1.000  Zn
  I5       1.0000 0.39277  0.24610  0.40590  Biso   1.000  I
  I6       1.0000 0.35830  0.08260  0.50380  Biso   1.000  I
  Zn4      1.0000 0.67300  0.85600  0.28040  Biso   1.000  Zn
  I7       1.0000 0.62600  0.82940  0.20838  Biso   1.000  I
  I8       1.0000 0.73899  0.77240  0.30250  Biso   1.000  I
  Zn5      1.0000 0.57510  0.39190  0.60220  Biso   1.000  Zn
  I9       1.0000 0.60450  0.26140  0.57142  Biso   1.000  I
  I10      1.0000 0.51204  0.37530  0.62980  Biso   1.000  I
  I11      1.0000 0.39740  0.23530  0.39870  Biso   1.000  I
  I12      1.0000 0.35510  0.06830  0.50150  Biso   1.000  I
  C37      1.0000 0.03120  0.04680  0.54700  Biso   1.000  C
  H25      1.0000 0.01070  0.03840  0.56190  Biso   1.000  H
  C38      1.0000 0.02780  0.11620  0.51910  Biso   1.000  C
  H26      1.0000 0.00520  0.15410  0.51430  Biso   1.000  H
  C39      1.0000 0.05790  0.13020  0.49800  Biso   1.000  C
  C40      1.0000 0.08940  0.07040  0.50390  Biso   1.000  C
  H27      1.0000 0.10990  0.07690  0.48890  Biso   1.000  H
  C41      1.0000 0.09040  0.00140  0.53190  Biso   1.000  C
  H28      1.0000 0.11180  0.96020  0.53570  Biso   1.000  H
  C42      1.0000 0.05590  0.20810  0.46940  Biso   1.000  C
  C43      1.0000 0.02350  0.33230  0.44270  Biso   1.000  C
  C44      1.0000 0.07540  0.28110  0.41800  Biso   1.000  C
  C45      1.0000 0.16730  0.29560  0.37440  Biso   1.000  C
  H29      1.0000 0.19510  0.28290  0.38320  Biso   1.000  H
  C46      1.0000 0.14290  0.27700  0.40130  Biso   1.000  C
  H30      1.0000 0.15390  0.25200  0.42820  Biso   1.000  H
  C47      1.0000 0.10240  0.29450  0.38930  Biso   1.000  C
  C48      1.0000 0.08700  0.33080  0.34900  Biso   1.000  C
  H31      1.0000 0.05940  0.34500  0.33960  Biso   1.000  H
  C49      1.0000 0.11380  0.34500  0.32360  Biso   1.000  C
  H32      1.0000 0.10340  0.36580  0.29570  Biso   1.000  H
  C50      1.0000 0.95070  0.51760  0.41190  Biso   1.000  C
  H33      1.0000 0.94370  0.55900  0.38950  Biso   1.000  H
  C51      1.0000 0.98230  0.46210  0.41240  Biso   1.000  C
  H34      1.0000 0.99760  0.46800  0.39180  Biso   1.000  H
  C52      1.0000 0.99160  0.39820  0.44270  Biso   1.000  C
  C53      1.0000 0.97110  0.39940  0.47430  Biso   1.000  C
  H35      1.0000 0.97800  0.35910  0.49730  Biso   1.000  H
  C54      1.0000 0.94040  0.45900  0.47270  Biso   1.000  C
  H36      1.0000 0.92650  0.45920  0.49480  Biso   1.000  H
  C55      1.0000 0.83560  0.44410  0.38940  Biso   1.000  C
  H37      1.0000 0.85450  0.41200  0.41000  Biso   1.000  H
  C56      1.0000 0.80640  0.39750  0.36220  Biso   1.000  C
  H38      1.0000 0.80540  0.33480  0.36400  Biso   1.000  H
  C57      1.0000 0.77830  0.44270  0.33230  Biso   1.000  C
  C58      1.0000 0.78180  0.53410  0.33050  Biso   1.000  C
  H39      1.0000 0.76360  0.56750  0.30990  Biso   1.000  H
  C59      1.0000 0.81220  0.57540  0.35930  Biso   1.000  C
  H40      1.0000 0.81410  0.63800  0.35820  Biso   1.000  H
  C60      1.0000 0.74540  0.39470  0.30310  Biso   1.000  C
  C61      1.0000 0.71000  0.27120  0.28280  Biso   1.000  C
  C62      1.0000 0.69210  0.39830  0.24710  Biso   1.000  C
  C63      1.0000 0.64530  0.57700  0.17120  Biso   1.000  C
  H41      1.0000 0.65030  0.63710  0.16560  Biso   1.000  H
  C64      1.0000 0.67150  0.53410  0.20370  Biso   1.000  C
  H42      1.0000 0.69390  0.56470  0.22010  Biso   1.000  H
  C65      1.0000 0.66500  0.44810  0.21220  Biso   1.000  C
  C66      1.0000 0.63300  0.40610  0.18710  Biso   1.000  C
  H43      1.0000 0.62830  0.34530  0.19140  Biso   1.000  H
  C67      1.0000 0.60770  0.45260  0.15530  Biso   1.000  C
  H44      1.0000 0.58530  0.42270  0.13840  Biso   1.000  H
  C68      1.0000 0.67420  0.03860  0.26070  Biso   1.000  C
  H45      1.0000 0.65640  0.00730  0.23880  Biso   1.000  H
  C69      1.0000 0.67750  0.12860  0.25620  Biso   1.000  C
  H46      1.0000 0.66170  0.15860  0.23240  Biso   1.000  H
  C70      1.0000 0.70420  0.17370  0.28700  Biso   1.000  C
  C71      1.0000 0.72550  0.12580  0.32050  Biso   1.000  C
  H47      1.0000 0.74430  0.15440  0.34250  Biso   1.000  H
  C72      1.0000 0.71960  0.03670  0.32220  Biso   1.000  C
  H48      1.0000 0.73470  0.00460  0.34560  Biso   1.000  H
  N13      1.0000 0.15300  0.33140  0.33580  Biso   1.000  N
  N14      1.0000 0.06229  0.99040  0.55409  Biso   1.000  N
  N15      1.0000 0.92972  0.51660  0.44090  Biso   1.000  N
  N16      1.0000 0.08204  0.21400  0.44474  Biso   1.000  N
  N17      1.0000 0.02723  0.26660  0.47120  Biso   1.000  N
  N18      1.0000 0.04561  0.34100  0.41410  Biso   1.000  N
  N19      1.0000 0.83910  0.53210  0.38860  Biso   1.000  N
  N20      1.0000 0.72245  0.44320  0.27151  Biso   1.000  N
  N21      1.0000 0.74058  0.30920  0.30995  Biso   1.000  N
  N22      1.0000 0.68432  0.31250  0.25132  Biso   1.000  N
  N23      1.0000 0.69400  0.99350  0.29300  Biso   1.000  N
  N24      1.0000 0.61310  0.53690  0.14740  Biso   1.000  N
  Zn6      1.0000 0.19042  0.35601  0.29590  Biso   1.000  Zn
  I13      1.0000 0.15240  0.30487  0.22347  Biso   1.000  I
  I14      1.0000 0.25902  0.29230  0.32775  Biso   1.000  I
  Zn7      1.0000 0.06820  0.90030  0.60180  Biso   1.000  Zn
  I15      1.0000 0.10473  0.76460  0.58410  Biso   1.000  I
  I16      1.0000 0.00434  0.89430  0.62818  Biso   1.000  I
  Zn8      1.0000 0.88031  0.59641  0.43487  Biso   1.000  Zn
  I17      1.0000 0.89277  0.74610  0.40590  Biso   1.000  I
  I18      1.0000 0.85830  0.58260  0.50380  Biso   1.000  I
  Zn9      1.0000 0.17300  0.35600  0.28040  Biso   1.000  Zn
  I19      1.0000 0.12600  0.32940  0.20838  Biso   1.000  I
  I20      1.0000 0.23899  0.27240  0.30250  Biso   1.000  I
  Zn10     1.0000 0.07510  0.89190  0.60220  Biso   1.000  Zn
  I21      1.0000 0.10450  0.76140  0.57142  Biso   1.000  I
  I22      1.0000 0.01204  0.87530  0.62980  Biso   1.000  I
  I23      1.0000 0.89740  0.73530  0.39870  Biso   1.000  I
  I24      1.0000 0.85510  0.56830  0.50150  Biso   1.000  I
  C73      1.0000 0.53120  0.45320  0.04700  Biso   1.000  C
  H49      1.0000 0.51070  0.46160  0.06190  Biso   1.000  H
  C74      1.0000 0.52780  0.38380  0.01910  Biso   1.000  C
  H50      1.0000 0.50520  0.34590  0.01430  Biso   1.000  H
  C75      1.0000 0.55790  0.36980  0.99800  Biso   1.000  C
  C76      1.0000 0.58940  0.42960  0.00390  Biso   1.000  C
  H51      1.0000 0.60990  0.42310  0.98890  Biso   1.000  H
  C77      1.0000 0.59040  0.49860  0.03190  Biso   1.000  C
  H52      1.0000 0.61180  0.53980  0.03570  Biso   1.000  H
  C78      1.0000 0.55590  0.29190  0.96940  Biso   1.000  C
  C79      1.0000 0.52350  0.16770  0.94270  Biso   1.000  C
  C80      1.0000 0.57540  0.21890  0.91800  Biso   1.000  C
  C81      1.0000 0.66730  0.20440  0.87440  Biso   1.000  C
  H53      1.0000 0.69510  0.21710  0.88320  Biso   1.000  H
  C82      1.0000 0.64290  0.22300  0.90130  Biso   1.000  C
  H54      1.0000 0.65390  0.24800  0.92820  Biso   1.000  H
  C83      1.0000 0.60240  0.20550  0.88930  Biso   1.000  C
  C84      1.0000 0.58700  0.16920  0.84900  Biso   1.000  C
  H55      1.0000 0.55940  0.15500  0.83960  Biso   1.000  H
  C85      1.0000 0.61380  0.15500  0.82360  Biso   1.000  C
  H56      1.0000 0.60340  0.13420  0.79570  Biso   1.000  H
  C86      1.0000 0.45070  0.98240  0.91190  Biso   1.000  C
  H57      1.0000 0.44370  0.94100  0.88950  Biso   1.000  H
  C87      1.0000 0.48230  0.03790  0.91240  Biso   1.000  C
  H58      1.0000 0.49760  0.03200  0.89180  Biso   1.000  H
  C88      1.0000 0.49160  0.10180  0.94270  Biso   1.000  C
  C89      1.0000 0.47110  0.10060  0.97430  Biso   1.000  C
  H59      1.0000 0.47800  0.14090  0.99730  Biso   1.000  H
  C90      1.0000 0.44040  0.04100  0.97270  Biso   1.000  C
  H60      1.0000 0.42650  0.04080  0.99480  Biso   1.000  H
  C91      1.0000 0.33560  0.05590  0.88940  Biso   1.000  C
  H61      1.0000 0.35450  0.08800  0.91000  Biso   1.000  H
  C92      1.0000 0.30640  0.10250  0.86220  Biso   1.000  C
  H62      1.0000 0.30540  0.16520  0.86400  Biso   1.000  H
  C93      1.0000 0.27830  0.05730  0.83230  Biso   1.000  C
  C94      1.0000 0.28180  0.96590  0.83050  Biso   1.000  C
  H63      1.0000 0.26360  0.93250  0.80990  Biso   1.000  H
  C95      1.0000 0.31220  0.92460  0.85930  Biso   1.000  C
  H64      1.0000 0.31410  0.86200  0.85820  Biso   1.000  H
  C96      1.0000 0.24540  0.10530  0.80310  Biso   1.000  C
  C97      1.0000 0.21000  0.22880  0.78280  Biso   1.000  C
  C98      1.0000 0.19210  0.10170  0.74710  Biso   1.000  C
  C99      1.0000 0.14530  0.92300  0.67120  Biso   1.000  C
  H65      1.0000 0.15030  0.86290  0.66560  Biso   1.000  H
  C100     1.0000 0.17150  0.96590  0.70370  Biso   1.000  C
  H66      1.0000 0.19390  0.93530  0.72010  Biso   1.000  H
  C101     1.0000 0.16500  0.05190  0.71220  Biso   1.000  C
  C102     1.0000 0.13300  0.09390  0.68710  Biso   1.000  C
  H67      1.0000 0.12830  0.15470  0.69140  Biso   1.000  H
  C103     1.0000 0.10770  0.04740  0.65530  Biso   1.000  C
  H68      1.0000 0.08530  0.07730  0.63840  Biso   1.000  H
  C104     1.0000 0.17420  0.46140  0.76070  Biso   1.000  C
  H69      1.0000 0.15640  0.49270  0.73880  Biso   1.000  H
  C105     1.0000 0.17750  0.37140  0.75620  Biso   1.000  C
  H70      1.0000 0.16170  0.34140  0.73240  Biso   1.000  H
  C106     1.0000 0.20420  0.32630  0.78700  Biso   1.000  C
  C107     1.0000 0.22550  0.37420  0.82050  Biso   1.000  C
  H71      1.0000 0.24430  0.34560  0.84250  Biso   1.000  H
  C108     1.0000 0.21960  0.46330  0.82220  Biso   1.000  C
  H72      1.0000 0.23470  0.49540  0.84560  Biso   1.000  H
  N25      1.0000 0.65300  0.16860  0.83580  Biso   1.000  N
  N26      1.0000 0.56229  0.50960  0.05409  Biso   1.000  N
  N27      1.0000 0.42972  0.98340  0.94090  Biso   1.000  N
  N28      1.0000 0.58204  0.28600  0.94474  Biso   1.000  N
  N29      1.0000 0.52723  0.23340  0.97120  Biso   1.000  N
  N30      1.0000 0.54561  0.15900  0.91410  Biso   1.000  N
  N31      1.0000 0.33910  0.96790  0.88860  Biso   1.000  N
  N32      1.0000 0.22245  0.05680  0.77151  Biso   1.000  N
  N33      1.0000 0.24058  0.19080  0.80995  Biso   1.000  N
  N34      1.0000 0.18432  0.18750  0.75132  Biso   1.000  N
  N35      1.0000 0.19400  0.50650  0.79300  Biso   1.000  N
  N36      1.0000 0.11310  0.96310  0.64740  Biso   1.000  N
  Zn11     1.0000 0.69042  0.14399  0.79590  Biso   1.000  Zn
  I25      1.0000 0.65240  0.19513  0.72347  Biso   1.000  I
  I26      1.0000 0.75902  0.20770  0.82775  Biso   1.000  I
  Zn12     1.0000 0.56820  0.59970  0.10180  Biso   1.000  Zn
  I27      1.0000 0.60473  0.73540  0.08410  Biso   1.000  I
  I28      1.0000 0.50434  0.60570  0.12818  Biso   1.000  I
  Zn13     1.0000 0.38031  0.90359  0.93487  Biso   1.000  Zn
  I29      1.0000 0.39277  0.75390  0.90590  Biso   1.000  I
  I30      1.0000 0.35830  0.91740  0.00380  Biso   1.000  I
  Zn14     1.0000 0.67300  0.14400  0.78040  Biso   1.000  Zn
  I31      1.0000 0.62600  0.17060  0.70838  Biso   1.000  I
  I32      1.0000 0.73899  0.22760  0.80250  Biso   1.000  I
  Zn15     1.0000 0.57510  0.60810  0.10220  Biso   1.000  Zn
  I33      1.0000 0.60450  0.73860  0.07142  Biso   1.000  I
  I34      1.0000 0.51204  0.62470  0.12980  Biso   1.000  I
  I35      1.0000 0.39740  0.76470  0.89870  Biso   1.000  I
  I36      1.0000 0.35510  0.93170  0.00150  Biso   1.000  I
  C109     1.0000 0.03120  0.95320  0.04700  Biso   1.000  C
  H73      1.0000 0.01070  0.96160  0.06190  Biso   1.000  H
  C110     1.0000 0.02780  0.88380  0.01910  Biso   1.000  C
  H74      1.0000 0.00520  0.84590  0.01430  Biso   1.000  H
  C111     1.0000 0.05790  0.86980  0.99800  Biso   1.000  C
  C112     1.0000 0.08940  0.92960  0.00390  Biso   1.000  C
  H75      1.0000 0.10990  0.92310  0.98890  Biso   1.000  H
  C113     1.0000 0.09040  0.99860  0.03190  Biso   1.000  C
  H76      1.0000 0.11180  0.03980  0.03570  Biso   1.000  H
  C114     1.0000 0.05590  0.79190  0.96940  Biso   1.000  C
  C115     1.0000 0.02350  0.66770  0.94270  Biso   1.000  C
  C116     1.0000 0.07540  0.71890  0.91800  Biso   1.000  C
  C117     1.0000 0.16730  0.70440  0.87440  Biso   1.000  C
  H77      1.0000 0.19510  0.71710  0.88320  Biso   1.000  H
  C118     1.0000 0.14290  0.72300  0.90130  Biso   1.000  C
  H78      1.0000 0.15390  0.74800  0.92820  Biso   1.000  H
  C119     1.0000 0.10240  0.70550  0.88930  Biso   1.000  C
  C120     1.0000 0.08700  0.66920  0.84900  Biso   1.000  C
  H79      1.0000 0.05940  0.65500  0.83960  Biso   1.000  H
  C121     1.0000 0.11380  0.65500  0.82360  Biso   1.000  C
  H80      1.0000 0.10340  0.63420  0.79570  Biso   1.000  H
  C122     1.0000 0.95070  0.48240  0.91190  Biso   1.000  C
  H81      1.0000 0.94370  0.44100  0.88950  Biso   1.000  H
  C123     1.0000 0.98230  0.53790  0.91240  Biso   1.000  C
  H82      1.0000 0.99760  0.53200  0.89180  Biso   1.000  H
  C124     1.0000 0.99160  0.60180  0.94270  Biso   1.000  C
  C125     1.0000 0.97110  0.60060  0.97430  Biso   1.000  C
  H83      1.0000 0.97800  0.64090  0.99730  Biso   1.000  H
  C126     1.0000 0.94040  0.54100  0.97270  Biso   1.000  C
  H84      1.0000 0.92650  0.54080  0.99480  Biso   1.000  H
  C127     1.0000 0.83560  0.55590  0.88940  Biso   1.000  C
  H85      1.0000 0.85450  0.58800  0.91000  Biso   1.000  H
  C128     1.0000 0.80640  0.60250  0.86220  Biso   1.000  C
  H86      1.0000 0.80540  0.66520  0.86400  Biso   1.000  H
  C129     1.0000 0.77830  0.55730  0.83230  Biso   1.000  C
  C130     1.0000 0.78180  0.46590  0.83050  Biso   1.000  C
  H87      1.0000 0.76360  0.43250  0.80990  Biso   1.000  H
  C131     1.0000 0.81220  0.42460  0.85930  Biso   1.000  C
  H88      1.0000 0.81410  0.36200  0.85820  Biso   1.000  H
  C132     1.0000 0.74540  0.60530  0.80310  Biso   1.000  C
  C133     1.0000 0.71000  0.72880  0.78280  Biso   1.000  C
  C134     1.0000 0.69210  0.60170  0.74710  Biso   1.000  C
  C135     1.0000 0.64530  0.42300  0.67120  Biso   1.000  C
  H89      1.0000 0.65030  0.36290  0.66560  Biso   1.000  H
  C136     1.0000 0.67150  0.46590  0.70370  Biso   1.000  C
  H90      1.0000 0.69390  0.43530  0.72010  Biso   1.000  H
  C137     1.0000 0.66500  0.55190  0.71220  Biso   1.000  C
  C138     1.0000 0.63300  0.59390  0.68710  Biso   1.000  C
  H91      1.0000 0.62830  0.65470  0.69140  Biso   1.000  H
  C139     1.0000 0.60770  0.54740  0.65530  Biso   1.000  C
  H92      1.0000 0.58530  0.57730  0.63840  Biso   1.000  H
  C140     1.0000 0.67420  0.96140  0.76070  Biso   1.000  C
  H93      1.0000 0.65640  0.99270  0.73880  Biso   1.000  H
  C141     1.0000 0.67750  0.87140  0.75620  Biso   1.000  C
  H94      1.0000 0.66170  0.84140  0.73240  Biso   1.000  H
  C142     1.0000 0.70420  0.82630  0.78700  Biso   1.000  C
  C143     1.0000 0.72550  0.87420  0.82050  Biso   1.000  C
  H95      1.0000 0.74430  0.84560  0.84250  Biso   1.000  H
  C144     1.0000 0.71960  0.96330  0.82220  Biso   1.000  C
  H96      1.0000 0.73470  0.99540  0.84560  Biso   1.000  H
  N37      1.0000 0.15300  0.66860  0.83580  Biso   1.000  N
  N38      1.0000 0.06229  0.00960  0.05409  Biso   1.000  N
  N39      1.0000 0.92972  0.48340  0.94090  Biso   1.000  N
  N40      1.0000 0.08204  0.78600  0.94474  Biso   1.000  N
  N41      1.0000 0.02723  0.73340  0.97120  Biso   1.000  N
  N42      1.0000 0.04561  0.65900  0.91410  Biso   1.000  N
  N43      1.0000 0.83910  0.46790  0.88860  Biso   1.000  N
  N44      1.0000 0.72245  0.55680  0.77151  Biso   1.000  N
  N45      1.0000 0.74058  0.69080  0.80995  Biso   1.000  N
  N46      1.0000 0.68432  0.68750  0.75132  Biso   1.000  N
  N47      1.0000 0.69400  0.00650  0.79300  Biso   1.000  N
  N48      1.0000 0.61310  0.46310  0.64740  Biso   1.000  N
  Zn16     1.0000 0.19042  0.64399  0.79590  Biso   1.000  Zn
  I37      1.0000 0.15240  0.69513  0.72347  Biso   1.000  I
  I38      1.0000 0.25902  0.70770  0.82775  Biso   1.000  I
  Zn17     1.0000 0.06820  0.09970  0.10180  Biso   1.000  Zn
  I39      1.0000 0.10473  0.23540  0.08410  Biso   1.000  I
  I40      1.0000 0.00434  0.10570  0.12818  Biso   1.000  I
  Zn18     1.0000 0.88031  0.40359  0.93487  Biso   1.000  Zn
  I41      1.0000 0.89277  0.25390  0.90590  Biso   1.000  I
  I42      1.0000 0.85830  0.41740  0.00380  Biso   1.000  I
  Zn19     1.0000 0.17300  0.64400  0.78040  Biso   1.000  Zn
  I43      1.0000 0.12600  0.67060  0.70838  Biso   1.000  I
  I44      1.0000 0.23899  0.72760  0.80250  Biso   1.000  I
  Zn20     1.0000 0.07510  0.10810  0.10220  Biso   1.000  Zn
  I45      1.0000 0.10450  0.23860  0.07142  Biso   1.000  I
  I46      1.0000 0.01204  0.12470  0.12980  Biso   1.000  I
  I47      1.0000 0.89740  0.26470  0.89870  Biso   1.000  I
  I48      1.0000 0.85510  0.43170  0.00150  Biso   1.000  I
  C145     1.0000 0.46880  0.54680  0.95300  Biso   1.000  C
  H97      1.0000 0.48930  0.53840  0.93810  Biso   1.000  H
  C146     1.0000 0.47220  0.61620  0.98090  Biso   1.000  C
  H98      1.0000 0.49480  0.65410  0.98570  Biso   1.000  H
  C147     1.0000 0.44210  0.63020  0.00200  Biso   1.000  C
  C148     1.0000 0.41060  0.57040  0.99610  Biso   1.000  C
  H99      1.0000 0.39010  0.57690  0.01110  Biso   1.000  H
  C149     1.0000 0.40960  0.50140  0.96810  Biso   1.000  C
  H100     1.0000 0.38820  0.46020  0.96430  Biso   1.000  H
  C150     1.0000 0.44410  0.70810  0.03060  Biso   1.000  C
  C151     1.0000 0.47650  0.83230  0.05730  Biso   1.000  C
  C152     1.0000 0.42460  0.78110  0.08200  Biso   1.000  C
  C153     1.0000 0.33270  0.79560  0.12560  Biso   1.000  C
  H101     1.0000 0.30490  0.78290  0.11680  Biso   1.000  H
  C154     1.0000 0.35710  0.77700  0.09870  Biso   1.000  C
  H102     1.0000 0.34610  0.75200  0.07180  Biso   1.000  H
  C155     1.0000 0.39760  0.79450  0.11070  Biso   1.000  C
  C156     1.0000 0.41300  0.83080  0.15100  Biso   1.000  C
  H103     1.0000 0.44060  0.84500  0.16040  Biso   1.000  H
  C157     1.0000 0.38620  0.84500  0.17640  Biso   1.000  C
  H104     1.0000 0.39660  0.86580  0.20430  Biso   1.000  H
  C158     1.0000 0.54930  0.01760  0.08810  Biso   1.000  C
  H105     1.0000 0.55630  0.05900  0.11050  Biso   1.000  H
  C159     1.0000 0.51770  0.96210  0.08760  Biso   1.000  C
  H106     1.0000 0.50240  0.96800  0.10820  Biso   1.000  H
  C160     1.0000 0.50840  0.89820  0.05730  Biso   1.000  C
  C161     1.0000 0.52890  0.89940  0.02570  Biso   1.000  C
  H107     1.0000 0.52200  0.85910  0.00270  Biso   1.000  H
  C162     1.0000 0.55960  0.95900  0.02730  Biso   1.000  C
  H108     1.0000 0.57350  0.95920  0.00520  Biso   1.000  H
  C163     1.0000 0.66440  0.94410  0.11060  Biso   1.000  C
  H109     1.0000 0.64550  0.91200  0.09000  Biso   1.000  H
  C164     1.0000 0.69360  0.89750  0.13780  Biso   1.000  C
  H110     1.0000 0.69460  0.83480  0.13600  Biso   1.000  H
  C165     1.0000 0.72170  0.94270  0.16770  Biso   1.000  C
  C166     1.0000 0.71820  0.03410  0.16950  Biso   1.000  C
  H111     1.0000 0.73640  0.06750  0.19010  Biso   1.000  H
  C167     1.0000 0.68780  0.07540  0.14070  Biso   1.000  C
  H112     1.0000 0.68590  0.13800  0.14180  Biso   1.000  H
  C168     1.0000 0.75460  0.89470  0.19690  Biso   1.000  C
  C169     1.0000 0.79000  0.77120  0.21720  Biso   1.000  C
  C170     1.0000 0.80790  0.89830  0.25290  Biso   1.000  C
  C171     1.0000 0.85470  0.07700  0.32880  Biso   1.000  C
  H113     1.0000 0.84970  0.13710  0.33440  Biso   1.000  H
  C172     1.0000 0.82850  0.03410  0.29630  Biso   1.000  C
  H114     1.0000 0.80610  0.06470  0.27990  Biso   1.000  H
  C173     1.0000 0.83500  0.94810  0.28780  Biso   1.000  C
  C174     1.0000 0.86700  0.90610  0.31290  Biso   1.000  C
  H115     1.0000 0.87170  0.84530  0.30860  Biso   1.000  H
  C175     1.0000 0.89230  0.95260  0.34470  Biso   1.000  C
  H116     1.0000 0.91470  0.92270  0.36160  Biso   1.000  H
  C176     1.0000 0.82580  0.53860  0.23930  Biso   1.000  C
  H117     1.0000 0.84360  0.50730  0.26120  Biso   1.000  H
  C177     1.0000 0.82250  0.62860  0.24380  Biso   1.000  C
  H118     1.0000 0.83830  0.65860  0.26760  Biso   1.000  H
  C178     1.0000 0.79580  0.67370  0.21300  Biso   1.000  C
  C179     1.0000 0.77450  0.62580  0.17950  Biso   1.000  C
  H119     1.0000 0.75570  0.65440  0.15750  Biso   1.000  H
  C180     1.0000 0.78040  0.53670  0.17780  Biso   1.000  C
  H120     1.0000 0.76530  0.50460  0.15440  Biso   1.000  H
  N49      1.0000 0.34700  0.83140  0.16420  Biso   1.000  N
  N50      1.0000 0.43771  0.49040  0.94591  Biso   1.000  N
  N51      1.0000 0.57028  0.01660  0.05910  Biso   1.000  N
  N52      1.0000 0.41796  0.71400  0.05526  Biso   1.000  N
  N53      1.0000 0.47277  0.76660  0.02880  Biso   1.000  N
  N54      1.0000 0.45439  0.84100  0.08590  Biso   1.000  N
  N55      1.0000 0.66090  0.03210  0.11140  Biso   1.000  N
  N56      1.0000 0.77755  0.94320  0.22849  Biso   1.000  N
  N57      1.0000 0.75942  0.80920  0.19005  Biso   1.000  N
  N58      1.0000 0.81568  0.81250  0.24868  Biso   1.000  N
  N59      1.0000 0.80600  0.49350  0.20700  Biso   1.000  N
  N60      1.0000 0.88690  0.03690  0.35260  Biso   1.000  N
  Zn21     1.0000 0.30958  0.85601  0.20410  Biso   1.000  Zn
  I49      1.0000 0.34760  0.80487  0.27653  Biso   1.000  I
  I50      1.0000 0.24098  0.79230  0.17225  Biso   1.000  I
  Zn22     1.0000 0.43180  0.40030  0.89820  Biso   1.000  Zn
  I51      1.0000 0.39527  0.26460  0.91590  Biso   1.000  I
  I52      1.0000 0.49566  0.39430  0.87182  Biso   1.000  I
  Zn23     1.0000 0.61969  0.09641  0.06513  Biso   1.000  Zn
  I53      1.0000 0.60723  0.24610  0.09410  Biso   1.000  I
  I54      1.0000 0.64170  0.08260  0.99620  Biso   1.000  I
  Zn24     1.0000 0.32700  0.85600  0.21960  Biso   1.000  Zn
  I55      1.0000 0.37400  0.82940  0.29162  Biso   1.000  I
  I56      1.0000 0.26101  0.77240  0.19750  Biso   1.000  I
  Zn25     1.0000 0.42490  0.39190  0.89780  Biso   1.000  Zn
  I57      1.0000 0.39550  0.26140  0.92858  Biso   1.000  I
  I58      1.0000 0.48796  0.37530  0.87020  Biso   1.000  I
  I59      1.0000 0.60260  0.23530  0.10130  Biso   1.000  I
  I60      1.0000 0.64490  0.06830  0.99850  Biso   1.000  I
  C181     1.0000 0.96880  0.04680  0.95300  Biso   1.000  C
  H121     1.0000 0.98930  0.03840  0.93810  Biso   1.000  H
  C182     1.0000 0.97220  0.11620  0.98090  Biso   1.000  C
  H122     1.0000 0.99480  0.15410  0.98570  Biso   1.000  H
  C183     1.0000 0.94210  0.13020  0.00200  Biso   1.000  C
  C184     1.0000 0.91060  0.07040  0.99610  Biso   1.000  C
  H123     1.0000 0.89010  0.07690  0.01110  Biso   1.000  H
  C185     1.0000 0.90960  0.00140  0.96810  Biso   1.000  C
  H124     1.0000 0.88820  0.96020  0.96430  Biso   1.000  H
  C186     1.0000 0.94410  0.20810  0.03060  Biso   1.000  C
  C187     1.0000 0.97650  0.33230  0.05730  Biso   1.000  C
  C188     1.0000 0.92460  0.28110  0.08200  Biso   1.000  C
  C189     1.0000 0.83270  0.29560  0.12560  Biso   1.000  C
  H125     1.0000 0.80490  0.28290  0.11680  Biso   1.000  H
  C190     1.0000 0.85710  0.27700  0.09870  Biso   1.000  C
  H126     1.0000 0.84610  0.25200  0.07180  Biso   1.000  H
  C191     1.0000 0.89760  0.29450  0.11070  Biso   1.000  C
  C192     1.0000 0.91300  0.33080  0.15100  Biso   1.000  C
  H127     1.0000 0.94060  0.34500  0.16040  Biso   1.000  H
  C193     1.0000 0.88620  0.34500  0.17640  Biso   1.000  C
  H128     1.0000 0.89660  0.36580  0.20430  Biso   1.000  H
  C194     1.0000 0.04930  0.51760  0.08810  Biso   1.000  C
  H129     1.0000 0.05630  0.55900  0.11050  Biso   1.000  H
  C195     1.0000 0.01770  0.46210  0.08760  Biso   1.000  C
  H130     1.0000 0.00240  0.46800  0.10820  Biso   1.000  H
  C196     1.0000 0.00840  0.39820  0.05730  Biso   1.000  C
  C197     1.0000 0.02890  0.39940  0.02570  Biso   1.000  C
  H131     1.0000 0.02200  0.35910  0.00270  Biso   1.000  H
  C198     1.0000 0.05960  0.45900  0.02730  Biso   1.000  C
  H132     1.0000 0.07350  0.45920  0.00520  Biso   1.000  H
  C199     1.0000 0.16440  0.44410  0.11060  Biso   1.000  C
  H133     1.0000 0.14550  0.41200  0.09000  Biso   1.000  H
  C200     1.0000 0.19360  0.39750  0.13780  Biso   1.000  C
  H134     1.0000 0.19460  0.33480  0.13600  Biso   1.000  H
  C201     1.0000 0.22170  0.44270  0.16770  Biso   1.000  C
  C202     1.0000 0.21820  0.53410  0.16950  Biso   1.000  C
  H135     1.0000 0.23640  0.56750  0.19010  Biso   1.000  H
  C203     1.0000 0.18780  0.57540  0.14070  Biso   1.000  C
  H136     1.0000 0.18590  0.63800  0.14180  Biso   1.000  H
  C204     1.0000 0.25460  0.39470  0.19690  Biso   1.000  C
  C205     1.0000 0.29000  0.27120  0.21720  Biso   1.000  C
  C206     1.0000 0.30790  0.39830  0.25290  Biso   1.000  C
  C207     1.0000 0.35470  0.57700  0.32880  Biso   1.000  C
  H137     1.0000 0.34970  0.63710  0.33440  Biso   1.000  H
  C208     1.0000 0.32850  0.53410  0.29630  Biso   1.000  C
  H138     1.0000 0.30610  0.56470  0.27990  Biso   1.000  H
  C209     1.0000 0.33500  0.44810  0.28780  Biso   1.000  C
  C210     1.0000 0.36700  0.40610  0.31290  Biso   1.000  C
  H139     1.0000 0.37170  0.34530  0.30860  Biso   1.000  H
  C211     1.0000 0.39230  0.45260  0.34470  Biso   1.000  C
  H140     1.0000 0.41470  0.42270  0.36160  Biso   1.000  H
  C212     1.0000 0.32580  0.03860  0.23930  Biso   1.000  C
  H141     1.0000 0.34360  0.00730  0.26120  Biso   1.000  H
  C213     1.0000 0.32250  0.12860  0.24380  Biso   1.000  C
  H142     1.0000 0.33830  0.15860  0.26760  Biso   1.000  H
  C214     1.0000 0.29580  0.17370  0.21300  Biso   1.000  C
  C215     1.0000 0.27450  0.12580  0.17950  Biso   1.000  C
  H143     1.0000 0.25570  0.15440  0.15750  Biso   1.000  H
  C216     1.0000 0.28040  0.03670  0.17780  Biso   1.000  C
  H144     1.0000 0.26530  0.00460  0.15440  Biso   1.000  H
  N61      1.0000 0.84700  0.33140  0.16420  Biso   1.000  N
  N62      1.0000 0.93771  0.99040  0.94591  Biso   1.000  N
  N63      1.0000 0.07028  0.51660  0.05910  Biso   1.000  N
  N64      1.0000 0.91796  0.21400  0.05526  Biso   1.000  N
  N65      1.0000 0.97277  0.26660  0.02880  Biso   1.000  N
  N66      1.0000 0.95439  0.34100  0.08590  Biso   1.000  N
  N67      1.0000 0.16090  0.53210  0.11140  Biso   1.000  N
  N68      1.0000 0.27755  0.44320  0.22849  Biso   1.000  N
  N69      1.0000 0.25942  0.30920  0.19005  Biso   1.000  N
  N70      1.0000 0.31568  0.31250  0.24868  Biso   1.000  N
  N71      1.0000 0.30600  0.99350  0.20700  Biso   1.000  N
  N72      1.0000 0.38690  0.53690  0.35260  Biso   1.000  N
  Zn26     1.0000 0.80958  0.35601  0.20410  Biso   1.000  Zn
  I61      1.0000 0.84760  0.30487  0.27653  Biso   1.000  I
  I62      1.0000 0.74098  0.29230  0.17225  Biso   1.000  I
  Zn27     1.0000 0.93180  0.90030  0.89820  Biso   1.000  Zn
  I63      1.0000 0.89527  0.76460  0.91590  Biso   1.000  I
  I64      1.0000 0.99566  0.89430  0.87182  Biso   1.000  I
  Zn28     1.0000 0.11969  0.59641  0.06513  Biso   1.000  Zn
  I65      1.0000 0.10723  0.74610  0.09410  Biso   1.000  I
  I66      1.0000 0.14170  0.58260  0.99620  Biso   1.000  I
  Zn29     1.0000 0.82700  0.35600  0.21960  Biso   1.000  Zn
  I67      1.0000 0.87400  0.32940  0.29162  Biso   1.000  I
  I68      1.0000 0.76101  0.27240  0.19750  Biso   1.000  I
  Zn30     1.0000 0.92490  0.89190  0.89780  Biso   1.000  Zn
  I69      1.0000 0.89550  0.76140  0.92858  Biso   1.000  I
  I70      1.0000 0.98796  0.87530  0.87020  Biso   1.000  I
  I71      1.0000 0.10260  0.73530  0.10130  Biso   1.000  I
  I72      1.0000 0.14490  0.56830  0.99850  Biso   1.000  I
  C217     1.0000 0.46880  0.45320  0.45300  Biso   1.000  C
  H145     1.0000 0.48930  0.46160  0.43810  Biso   1.000  H
  C218     1.0000 0.47220  0.38380  0.48090  Biso   1.000  C
  H146     1.0000 0.49480  0.34590  0.48570  Biso   1.000  H
  C219     1.0000 0.44210  0.36980  0.50200  Biso   1.000  C
  C220     1.0000 0.41060  0.42960  0.49610  Biso   1.000  C
  H147     1.0000 0.39010  0.42310  0.51110  Biso   1.000  H
  C221     1.0000 0.40960  0.49860  0.46810  Biso   1.000  C
  H148     1.0000 0.38820  0.53980  0.46430  Biso   1.000  H
  C222     1.0000 0.44410  0.29190  0.53060  Biso   1.000  C
  C223     1.0000 0.47650  0.16770  0.55730  Biso   1.000  C
  C224     1.0000 0.42460  0.21890  0.58200  Biso   1.000  C
  C225     1.0000 0.33270  0.20440  0.62560  Biso   1.000  C
  H149     1.0000 0.30490  0.21710  0.61680  Biso   1.000  H
  C226     1.0000 0.35710  0.22300  0.59870  Biso   1.000  C
  H150     1.0000 0.34610  0.24800  0.57180  Biso   1.000  H
  C227     1.0000 0.39760  0.20550  0.61070  Biso   1.000  C
  C228     1.0000 0.41300  0.16920  0.65100  Biso   1.000  C
  H151     1.0000 0.44060  0.15500  0.66040  Biso   1.000  H
  C229     1.0000 0.38620  0.15500  0.67640  Biso   1.000  C
  H152     1.0000 0.39660  0.13420  0.70430  Biso   1.000  H
  C230     1.0000 0.54930  0.98240  0.58810  Biso   1.000  C
  H153     1.0000 0.55630  0.94100  0.61050  Biso   1.000  H
  C231     1.0000 0.51770  0.03790  0.58760  Biso   1.000  C
  H154     1.0000 0.50240  0.03200  0.60820  Biso   1.000  H
  C232     1.0000 0.50840  0.10180  0.55730  Biso   1.000  C
  C233     1.0000 0.52890  0.10060  0.52570  Biso   1.000  C
  H155     1.0000 0.52200  0.14090  0.50270  Biso   1.000  H
  C234     1.0000 0.55960  0.04100  0.52730  Biso   1.000  C
  H156     1.0000 0.57350  0.04080  0.50520  Biso   1.000  H
  C235     1.0000 0.66440  0.05590  0.61060  Biso   1.000  C
  H157     1.0000 0.64550  0.08800  0.59000  Biso   1.000  H
  C236     1.0000 0.69360  0.10250  0.63780  Biso   1.000  C
  H158     1.0000 0.69460  0.16520  0.63600  Biso   1.000  H
  C237     1.0000 0.72170  0.05730  0.66770  Biso   1.000  C
  C238     1.0000 0.71820  0.96590  0.66950  Biso   1.000  C
  H159     1.0000 0.73640  0.93250  0.69010  Biso   1.000  H
  C239     1.0000 0.68780  0.92460  0.64070  Biso   1.000  C
  H160     1.0000 0.68590  0.86200  0.64180  Biso   1.000  H
  C240     1.0000 0.75460  0.10530  0.69690  Biso   1.000  C
  C241     1.0000 0.79000  0.22880  0.71720  Biso   1.000  C
  C242     1.0000 0.80790  0.10170  0.75290  Biso   1.000  C
  C243     1.0000 0.85470  0.92300  0.82880  Biso   1.000  C
  H161     1.0000 0.84970  0.86290  0.83440  Biso   1.000  H
  C244     1.0000 0.82850  0.96590  0.79630  Biso   1.000  C
  H162     1.0000 0.80610  0.93530  0.77990  Biso   1.000  H
  C245     1.0000 0.83500  0.05190  0.78780  Biso   1.000  C
  C246     1.0000 0.86700  0.09390  0.81290  Biso   1.000  C
  H163     1.0000 0.87170  0.15470  0.80860  Biso   1.000  H
  C247     1.0000 0.89230  0.04740  0.84470  Biso   1.000  C
  H164     1.0000 0.91470  0.07730  0.86160  Biso   1.000  H
  C248     1.0000 0.82580  0.46140  0.73930  Biso   1.000  C
  H165     1.0000 0.84360  0.49270  0.76120  Biso   1.000  H
  C249     1.0000 0.82250  0.37140  0.74380  Biso   1.000  C
  H166     1.0000 0.83830  0.34140  0.76760  Biso   1.000  H
  C250     1.0000 0.79580  0.32630  0.71300  Biso   1.000  C
  C251     1.0000 0.77450  0.37420  0.67950  Biso   1.000  C
  H167     1.0000 0.75570  0.34560  0.65750  Biso   1.000  H
  C252     1.0000 0.78040  0.46330  0.67780  Biso   1.000  C
  H168     1.0000 0.76530  0.49540  0.65440  Biso   1.000  H
  N73      1.0000 0.34700  0.16860  0.66420  Biso   1.000  N
  N74      1.0000 0.43771  0.50960  0.44591  Biso   1.000  N
  N75      1.0000 0.57028  0.98340  0.55910  Biso   1.000  N
  N76      1.0000 0.41796  0.28600  0.55526  Biso   1.000  N
  N77      1.0000 0.47277  0.23340  0.52880  Biso   1.000  N
  N78      1.0000 0.45439  0.15900  0.58590  Biso   1.000  N
  N79      1.0000 0.66090  0.96790  0.61140  Biso   1.000  N
  N80      1.0000 0.77755  0.05680  0.72849  Biso   1.000  N
  N81      1.0000 0.75942  0.19080  0.69005  Biso   1.000  N
  N82      1.0000 0.81568  0.18750  0.74868  Biso   1.000  N
  N83      1.0000 0.80600  0.50650  0.70700  Biso   1.000  N
  N84      1.0000 0.88690  0.96310  0.85260  Biso   1.000  N
  Zn31     1.0000 0.30958  0.14399  0.70410  Biso   1.000  Zn
  I73      1.0000 0.34760  0.19513  0.77653  Biso   1.000  I
  I74      1.0000 0.24098  0.20770  0.67225  Biso   1.000  I
  Zn32     1.0000 0.43180  0.59970  0.39820  Biso   1.000  Zn
  I75      1.0000 0.39527  0.73540  0.41590  Biso   1.000  I
  I76      1.0000 0.49566  0.60570  0.37182  Biso   1.000  I
  Zn33     1.0000 0.61969  0.90359  0.56513  Biso   1.000  Zn
  I77      1.0000 0.60723  0.75390  0.59410  Biso   1.000  I
  I78      1.0000 0.64170  0.91740  0.49620  Biso   1.000  I
  Zn34     1.0000 0.32700  0.14400  0.71960  Biso   1.000  Zn
  I79      1.0000 0.37400  0.17060  0.79162  Biso   1.000  I
  I80      1.0000 0.26101  0.22760  0.69750  Biso   1.000  I
  Zn35     1.0000 0.42490  0.60810  0.39780  Biso   1.000  Zn
  I81      1.0000 0.39550  0.73860  0.42858  Biso   1.000  I
  I82      1.0000 0.48796  0.62470  0.37020  Biso   1.000  I
  I83      1.0000 0.60260  0.76470  0.60130  Biso   1.000  I
  I84      1.0000 0.64490  0.93170  0.49850  Biso   1.000  I
  C253     1.0000 0.96880  0.95320  0.45300  Biso   1.000  C
  H169     1.0000 0.98930  0.96160  0.43810  Biso   1.000  H
  C254     1.0000 0.97220  0.88380  0.48090  Biso   1.000  C
  H170     1.0000 0.99480  0.84590  0.48570  Biso   1.000  H
  C255     1.0000 0.94210  0.86980  0.50200  Biso   1.000  C
  C256     1.0000 0.91060  0.92960  0.49610  Biso   1.000  C
  H171     1.0000 0.89010  0.92310  0.51110  Biso   1.000  H
  C257     1.0000 0.90960  0.99860  0.46810  Biso   1.000  C
  H172     1.0000 0.88820  0.03980  0.46430  Biso   1.000  H
  C258     1.0000 0.94410  0.79190  0.53060  Biso   1.000  C
  C259     1.0000 0.97650  0.66770  0.55730  Biso   1.000  C
  C260     1.0000 0.92460  0.71890  0.58200  Biso   1.000  C
  C261     1.0000 0.83270  0.70440  0.62560  Biso   1.000  C
  H173     1.0000 0.80490  0.71710  0.61680  Biso   1.000  H
  C262     1.0000 0.85710  0.72300  0.59870  Biso   1.000  C
  H174     1.0000 0.84610  0.74800  0.57180  Biso   1.000  H
  C263     1.0000 0.89760  0.70550  0.61070  Biso   1.000  C
  C264     1.0000 0.91300  0.66920  0.65100  Biso   1.000  C
  H175     1.0000 0.94060  0.65500  0.66040  Biso   1.000  H
  C265     1.0000 0.88620  0.65500  0.67640  Biso   1.000  C
  H176     1.0000 0.89660  0.63420  0.70430  Biso   1.000  H
  C266     1.0000 0.04930  0.48240  0.58810  Biso   1.000  C
  H177     1.0000 0.05630  0.44100  0.61050  Biso   1.000  H
  C267     1.0000 0.01770  0.53790  0.58760  Biso   1.000  C
  H178     1.0000 0.00240  0.53200  0.60820  Biso   1.000  H
  C268     1.0000 0.00840  0.60180  0.55730  Biso   1.000  C
  C269     1.0000 0.02890  0.60060  0.52570  Biso   1.000  C
  H179     1.0000 0.02200  0.64090  0.50270  Biso   1.000  H
  C270     1.0000 0.05960  0.54100  0.52730  Biso   1.000  C
  H180     1.0000 0.07350  0.54080  0.50520  Biso   1.000  H
  C271     1.0000 0.16440  0.55590  0.61060  Biso   1.000  C
  H181     1.0000 0.14550  0.58800  0.59000  Biso   1.000  H
  C272     1.0000 0.19360  0.60250  0.63780  Biso   1.000  C
  H182     1.0000 0.19460  0.66520  0.63600  Biso   1.000  H
  C273     1.0000 0.22170  0.55730  0.66770  Biso   1.000  C
  C274     1.0000 0.21820  0.46590  0.66950  Biso   1.000  C
  H183     1.0000 0.23640  0.43250  0.69010  Biso   1.000  H
  C275     1.0000 0.18780  0.42460  0.64070  Biso   1.000  C
  H184     1.0000 0.18590  0.36200  0.64180  Biso   1.000  H
  C276     1.0000 0.25460  0.60530  0.69690  Biso   1.000  C
  C277     1.0000 0.29000  0.72880  0.71720  Biso   1.000  C
  C278     1.0000 0.30790  0.60170  0.75290  Biso   1.000  C
  C279     1.0000 0.35470  0.42300  0.82880  Biso   1.000  C
  H185     1.0000 0.34970  0.36290  0.83440  Biso   1.000  H
  C280     1.0000 0.32850  0.46590  0.79630  Biso   1.000  C
  H186     1.0000 0.30610  0.43530  0.77990  Biso   1.000  H
  C281     1.0000 0.33500  0.55190  0.78780  Biso   1.000  C
  C282     1.0000 0.36700  0.59390  0.81290  Biso   1.000  C
  H187     1.0000 0.37170  0.65470  0.80860  Biso   1.000  H
  C283     1.0000 0.39230  0.54740  0.84470  Biso   1.000  C
  H188     1.0000 0.41470  0.57730  0.86160  Biso   1.000  H
  C284     1.0000 0.32580  0.96140  0.73930  Biso   1.000  C
  H189     1.0000 0.34360  0.99270  0.76120  Biso   1.000  H
  C285     1.0000 0.32250  0.87140  0.74380  Biso   1.000  C
  H190     1.0000 0.33830  0.84140  0.76760  Biso   1.000  H
  C286     1.0000 0.29580  0.82630  0.71300  Biso   1.000  C
  C287     1.0000 0.27450  0.87420  0.67950  Biso   1.000  C
  H191     1.0000 0.25570  0.84560  0.65750  Biso   1.000  H
  C288     1.0000 0.28040  0.96330  0.67780  Biso   1.000  C
  H192     1.0000 0.26530  0.99540  0.65440  Biso   1.000  H
  N85      1.0000 0.84700  0.66860  0.66420  Biso   1.000  N
  N86      1.0000 0.93771  0.00960  0.44591  Biso   1.000  N
  N87      1.0000 0.07028  0.48340  0.55910  Biso   1.000  N
  N88      1.0000 0.91796  0.78600  0.55526  Biso   1.000  N
  N89      1.0000 0.97277  0.73340  0.52880  Biso   1.000  N
  N90      1.0000 0.95439  0.65900  0.58590  Biso   1.000  N
  N91      1.0000 0.16090  0.46790  0.61140  Biso   1.000  N
  N92      1.0000 0.27755  0.55680  0.72849  Biso   1.000  N
  N93      1.0000 0.25942  0.69080  0.69005  Biso   1.000  N
  N94      1.0000 0.31568  0.68750  0.74868  Biso   1.000  N
  N95      1.0000 0.30600  0.00650  0.70700  Biso   1.000  N
  N96      1.0000 0.38690  0.46310  0.85260  Biso   1.000  N
  Zn36     1.0000 0.80958  0.64399  0.70410  Biso   1.000  Zn
  I85      1.0000 0.84760  0.69513  0.77653  Biso   1.000  I
  I86      1.0000 0.74098  0.70770  0.67225  Biso   1.000  I
  Zn37     1.0000 0.93180  0.09970  0.39820  Biso   1.000  Zn
  I87      1.0000 0.89527  0.23540  0.41590  Biso   1.000  I
  I88      1.0000 0.99566  0.10570  0.37182  Biso   1.000  I
  Zn38     1.0000 0.11969  0.40359  0.56513  Biso   1.000  Zn
  I89      1.0000 0.10723  0.25390  0.59410  Biso   1.000  I
  I90      1.0000 0.14170  0.41740  0.49620  Biso   1.000  I
  Zn39     1.0000 0.82700  0.64400  0.71960  Biso   1.000  Zn
  I91      1.0000 0.87400  0.67060  0.79162  Biso   1.000  I
  I92      1.0000 0.76101  0.72760  0.69750  Biso   1.000  I
  Zn40     1.0000 0.92490  0.10810  0.39780  Biso   1.000  Zn
  I93      1.0000 0.89550  0.23860  0.42858  Biso   1.000  I
  I94      1.0000 0.98796  0.12470  0.37020  Biso   1.000  I
  I95      1.0000 0.10260  0.26470  0.60130  Biso   1.000  I
  I96      1.0000 0.14490  0.43170  0.49850  Biso   1.000  I
