data_image0
_cell_length_a       34.655
_cell_length_b       14.7307
_cell_length_c       31.081
_cell_angle_alpha    90
_cell_angle_beta     101.031
_cell_angle_gamma    90

_symmetry_space_group_name_H-M    "P 1"
_symmetry_int_tables_number       1

loop_
  _symmetry_equiv_pos_as_xyz
  'x, y, z'

loop_
  _atom_site_label
  _atom_site_occupancy
  _atom_site_fract_x
  _atom_site_fract_y
  _atom_site_fract_z
  _atom_site_thermal_displace_type
  _atom_site_B_iso_or_equiv
  _atom_site_type_symbol
  C1       1.0000 0.88880  0.02520  0.84600  Biso   1.000  C
  H1       1.0000 0.91270  0.05000  0.86170  Biso   1.000  H
  C2       1.0000 0.86540  0.07760  0.81330  Biso   1.000  C
  H2       1.0000 0.87130  0.13970  0.80960  Biso   1.000  H
  C3       1.0000 0.83350  0.03710  0.78650  Biso   1.000  C
  C4       1.0000 0.82400  0.94810  0.79540  Biso   1.000  C
  H3       1.0000 0.80230  0.91810  0.77770  Biso   1.000  H
  C5       1.0000 0.84680  0.90460  0.83050  Biso   1.000  C
  H4       1.0000 0.83980  0.84470  0.83720  Biso   1.000  H
  C6       1.0000 0.81030  0.08970  0.75030  Biso   1.000  C
  C7       1.0000 0.76040  0.10010  0.69250  Biso   1.000  C
  C8       1.0000 0.79680  0.22160  0.71430  Biso   1.000  C
  C9       1.0000 0.78420  0.47410  0.69410  Biso   1.000  C
  H5       1.0000 0.76530  0.51470  0.67840  Biso   1.000  H
  C10      1.0000 0.77770  0.38110  0.68930  Biso   1.000  C
  H6       1.0000 0.75520  0.35880  0.66980  Biso   1.000  H
  C11      1.0000 0.80440  0.32170  0.71320  Biso   1.000  C
  C12      1.0000 0.83850  0.35590  0.73970  Biso   1.000  C
  H7       1.0000 0.85790  0.31630  0.75530  Biso   1.000  H
  C13      1.0000 0.84310  0.45000  0.74250  Biso   1.000  C
  H8       1.0000 0.86600  0.47410  0.76080  Biso   1.000  H
  C14      1.0000 0.68560  0.92660  0.64380  Biso   1.000  C
  H9       1.0000 0.67720  0.86840  0.65150  Biso   1.000  H
  C15      1.0000 0.71480  0.96930  0.67120  Biso   1.000  C
  H10      1.0000 0.72680  0.94020  0.69770  Biso   1.000  H
  C16      1.0000 0.72760  0.05420  0.66170  Biso   1.000  C
  C17      1.0000 0.70890  0.09420  0.62370  Biso   1.000  C
  H11      1.0000 0.71610  0.15360  0.61640  Biso   1.000  H
  C18      1.0000 0.68020  0.04940  0.59660  Biso   1.000  C
  H12      1.0000 0.66800  0.07800  0.57000  Biso   1.000  H
  C19      1.0000 0.56380  0.03380  0.51970  Biso   1.000  C
  H13      1.0000 0.57490  0.02560  0.49430  Biso   1.000  H
  C20      1.0000 0.53280  0.09330  0.51830  Biso   1.000  C
  H14      1.0000 0.52340  0.12750  0.49250  Biso   1.000  H
  C21      1.0000 0.51560  0.10270  0.55510  Biso   1.000  C
  C22      1.0000 0.53250  0.05520  0.59390  Biso   1.000  C
  H15      1.0000 0.52300  0.06350  0.62040  Biso   1.000  H
  C23      1.0000 0.56290  0.99690  0.59190  Biso   1.000  C
  H16      1.0000 0.57310  0.96170  0.61710  Biso   1.000  H
  C24      1.0000 0.48250  0.16540  0.55590  Biso   1.000  C
  C25      1.0000 0.44800  0.29040  0.53170  Biso   1.000  C
  C26      1.0000 0.43270  0.20880  0.58760  Biso   1.000  C
  C27      1.0000 0.40380  0.49970  0.47280  Biso   1.000  C
  H17      1.0000 0.38060  0.53500  0.47100  Biso   1.000  H
  C28      1.0000 0.40980  0.42570  0.50110  Biso   1.000  C
  H18      1.0000 0.39150  0.41290  0.51950  Biso   1.000  H
  C29      1.0000 0.44230  0.37100  0.50260  Biso   1.000  C
  C30      1.0000 0.46880  0.39590  0.47730  Biso   1.000  C
  H19      1.0000 0.49180  0.36040  0.47830  Biso   1.000  H
  C31      1.0000 0.46310  0.46980  0.45090  Biso   1.000  C
  H20      1.0000 0.48230  0.48540  0.43410  Biso   1.000  H
  C32      1.0000 0.39650  0.12760  0.68660  Biso   1.000  C
  H21      1.0000 0.40500  0.08960  0.71130  Biso   1.000  H
  C33      1.0000 0.42070  0.14010  0.65690  Biso   1.000  C
  H22      1.0000 0.44570  0.11140  0.66090  Biso   1.000  H
  C34      1.0000 0.40760  0.19630  0.62040  Biso   1.000  C
  C35      1.0000 0.37180  0.23740  0.61670  Biso   1.000  C
  H23      1.0000 0.36240  0.27630  0.59260  Biso   1.000  H
  C36      1.0000 0.34970  0.22230  0.64810  Biso   1.000  C
  H24      1.0000 0.32520  0.25260  0.64530  Biso   1.000  H
  N1       1.0000 0.87860  0.94250  0.85580  Biso   1.000  N
  N2       1.0000 0.82070  0.17590  0.74610  Biso   1.000  N
  N3       1.0000 0.76680  0.18690  0.68570  Biso   1.000  N
  N4       1.0000 0.77940  0.04870  0.72480  Biso   1.000  N
  N5       1.0000 0.81630  0.50820  0.72010  Biso   1.000  N
  N6       1.0000 0.66790  0.96500  0.60560  Biso   1.000  N
  N7       1.0000 0.57880  0.98680  0.55690  Biso   1.000  N
  N8       1.0000 0.47710  0.23260  0.52620  Biso   1.000  N
  N9       1.0000 0.42540  0.28280  0.56060  Biso   1.000  N
  N10      1.0000 0.46120  0.14860  0.58670  Biso   1.000  N
  N11      1.0000 0.43010  0.52250  0.44780  Biso   1.000  N
  N12      1.0000 0.36060  0.16820  0.68170  Biso   1.000  N
  Zn1      1.0000 0.91792  0.87200  0.90263  Biso   1.000  Zn
  Zn2      1.0000 0.62530  0.89722  0.56223  Biso   1.000  Zn
  Zn3      1.0000 0.32837  0.14613  0.73023  Biso   1.000  Zn
  I1       1.0000 0.88062  0.75614  0.93859  Biso   1.000  I
  I2       1.0000 0.97679  0.84585  0.86676  Biso   1.000  I
  I3       1.0000 0.60666  0.75694  0.60005  Biso   1.000  I
  I4       1.0000 0.64787  0.89708  0.48967  Biso   1.000  I
  I5       1.0000 0.37241  0.15958  0.80549  Biso   1.000  I
  I6       1.0000 0.26512  0.23637  0.70730  Biso   1.000  I
  Zn4      1.0000 0.90930  0.87700  0.90970  Biso   1.000  Zn
  Zn5      1.0000 0.63070  0.91480  0.54980  Biso   1.000  Zn
  Zn6      1.0000 0.31770  0.14490  0.71810  Biso   1.000  Zn
  I7       1.0000 0.86430  0.77280  0.94200  Biso   1.000  I
  I8       1.0000 0.96930  0.83130  0.87700  Biso   1.000  I
  I9       1.0000 0.62040  0.75790  0.57680  Biso   1.000  I
  I10      1.0000 0.65450  0.92920  0.47770  Biso   1.000  I
  I11      1.0000 0.35950  0.17010  0.79440  Biso   1.000  I
  I12      1.0000 0.25340  0.22360  0.68930  Biso   1.000  I
  C37      1.0000 0.62160  0.06800  0.42360  Biso   1.000  C
  H25      1.0000 0.62790  0.00960  0.44000  Biso   1.000  H
  Cl1      1.0000 0.63700  0.16000  0.45870  Biso   1.000  Cl
  Cl2      1.0000 0.64440  0.06930  0.37820  Biso   1.000  Cl
  Cl3      1.0000 0.57070  0.07700  0.40560  Biso   1.000  Cl
  C38      1.0000 0.38880  0.52520  0.84600  Biso   1.000  C
  H26      1.0000 0.41270  0.55000  0.86170  Biso   1.000  H
  C39      1.0000 0.36540  0.57760  0.81330  Biso   1.000  C
  H27      1.0000 0.37130  0.63970  0.80960  Biso   1.000  H
  C40      1.0000 0.33350  0.53710  0.78650  Biso   1.000  C
  C41      1.0000 0.32400  0.44810  0.79540  Biso   1.000  C
  H28      1.0000 0.30230  0.41810  0.77770  Biso   1.000  H
  C42      1.0000 0.34680  0.40460  0.83050  Biso   1.000  C
  H29      1.0000 0.33980  0.34470  0.83720  Biso   1.000  H
  C43      1.0000 0.31030  0.58970  0.75030  Biso   1.000  C
  C44      1.0000 0.26040  0.60010  0.69250  Biso   1.000  C
  C45      1.0000 0.29680  0.72160  0.71430  Biso   1.000  C
  C46      1.0000 0.28420  0.97410  0.69410  Biso   1.000  C
  H30      1.0000 0.26530  0.01470  0.67840  Biso   1.000  H
  C47      1.0000 0.27770  0.88110  0.68930  Biso   1.000  C
  H31      1.0000 0.25520  0.85880  0.66980  Biso   1.000  H
  C48      1.0000 0.30440  0.82170  0.71320  Biso   1.000  C
  C49      1.0000 0.33850  0.85590  0.73970  Biso   1.000  C
  H32      1.0000 0.35790  0.81630  0.75530  Biso   1.000  H
  C50      1.0000 0.34310  0.95000  0.74250  Biso   1.000  C
  H33      1.0000 0.36600  0.97410  0.76080  Biso   1.000  H
  C51      1.0000 0.18560  0.42660  0.64380  Biso   1.000  C
  H34      1.0000 0.17720  0.36840  0.65150  Biso   1.000  H
  C52      1.0000 0.21480  0.46930  0.67120  Biso   1.000  C
  H35      1.0000 0.22680  0.44020  0.69770  Biso   1.000  H
  C53      1.0000 0.22760  0.55420  0.66170  Biso   1.000  C
  C54      1.0000 0.20890  0.59420  0.62370  Biso   1.000  C
  H36      1.0000 0.21610  0.65360  0.61640  Biso   1.000  H
  C55      1.0000 0.18020  0.54940  0.59660  Biso   1.000  C
  H37      1.0000 0.16800  0.57800  0.57000  Biso   1.000  H
  C56      1.0000 0.06380  0.53380  0.51970  Biso   1.000  C
  H38      1.0000 0.07490  0.52560  0.49430  Biso   1.000  H
  C57      1.0000 0.03280  0.59330  0.51830  Biso   1.000  C
  H39      1.0000 0.02340  0.62750  0.49250  Biso   1.000  H
  C58      1.0000 0.01560  0.60270  0.55510  Biso   1.000  C
  C59      1.0000 0.03250  0.55520  0.59390  Biso   1.000  C
  H40      1.0000 0.02300  0.56350  0.62040  Biso   1.000  H
  C60      1.0000 0.06290  0.49690  0.59190  Biso   1.000  C
  H41      1.0000 0.07310  0.46170  0.61710  Biso   1.000  H
  C61      1.0000 0.98250  0.66540  0.55590  Biso   1.000  C
  C62      1.0000 0.94800  0.79040  0.53170  Biso   1.000  C
  C63      1.0000 0.93270  0.70880  0.58760  Biso   1.000  C
  C64      1.0000 0.90380  0.99970  0.47280  Biso   1.000  C
  H42      1.0000 0.88060  0.03500  0.47100  Biso   1.000  H
  C65      1.0000 0.90980  0.92570  0.50110  Biso   1.000  C
  H43      1.0000 0.89150  0.91290  0.51950  Biso   1.000  H
  C66      1.0000 0.94230  0.87100  0.50260  Biso   1.000  C
  C67      1.0000 0.96880  0.89590  0.47730  Biso   1.000  C
  H44      1.0000 0.99180  0.86040  0.47830  Biso   1.000  H
  C68      1.0000 0.96310  0.96980  0.45090  Biso   1.000  C
  H45      1.0000 0.98230  0.98540  0.43410  Biso   1.000  H
  C69      1.0000 0.89650  0.62760  0.68660  Biso   1.000  C
  H46      1.0000 0.90500  0.58960  0.71130  Biso   1.000  H
  C70      1.0000 0.92070  0.64010  0.65690  Biso   1.000  C
  H47      1.0000 0.94570  0.61140  0.66090  Biso   1.000  H
  C71      1.0000 0.90760  0.69630  0.62040  Biso   1.000  C
  C72      1.0000 0.87180  0.73740  0.61670  Biso   1.000  C
  H48      1.0000 0.86240  0.77630  0.59260  Biso   1.000  H
  C73      1.0000 0.84970  0.72230  0.64810  Biso   1.000  C
  H49      1.0000 0.82520  0.75260  0.64530  Biso   1.000  H
  N13      1.0000 0.37860  0.44250  0.85580  Biso   1.000  N
  N14      1.0000 0.32070  0.67590  0.74610  Biso   1.000  N
  N15      1.0000 0.26680  0.68690  0.68570  Biso   1.000  N
  N16      1.0000 0.27940  0.54870  0.72480  Biso   1.000  N
  N17      1.0000 0.31630  0.00820  0.72010  Biso   1.000  N
  N18      1.0000 0.16790  0.46500  0.60560  Biso   1.000  N
  N19      1.0000 0.07880  0.48680  0.55690  Biso   1.000  N
  N20      1.0000 0.97710  0.73260  0.52620  Biso   1.000  N
  N21      1.0000 0.92540  0.78280  0.56060  Biso   1.000  N
  N22      1.0000 0.96120  0.64860  0.58670  Biso   1.000  N
  N23      1.0000 0.93010  0.02250  0.44780  Biso   1.000  N
  N24      1.0000 0.86060  0.66820  0.68170  Biso   1.000  N
  Zn7      1.0000 0.41792  0.37200  0.90263  Biso   1.000  Zn
  Zn8      1.0000 0.12530  0.39722  0.56223  Biso   1.000  Zn
  Zn9      1.0000 0.82837  0.64613  0.73023  Biso   1.000  Zn
  I13      1.0000 0.38062  0.25614  0.93859  Biso   1.000  I
  I14      1.0000 0.47679  0.34585  0.86676  Biso   1.000  I
  I15      1.0000 0.10666  0.25694  0.60005  Biso   1.000  I
  I16      1.0000 0.14787  0.39708  0.48967  Biso   1.000  I
  I17      1.0000 0.87241  0.65958  0.80549  Biso   1.000  I
  I18      1.0000 0.76512  0.73637  0.70730  Biso   1.000  I
  Zn10     1.0000 0.40930  0.37700  0.90970  Biso   1.000  Zn
  Zn11     1.0000 0.13070  0.41480  0.54980  Biso   1.000  Zn
  Zn12     1.0000 0.81770  0.64490  0.71810  Biso   1.000  Zn
  I19      1.0000 0.36430  0.27280  0.94200  Biso   1.000  I
  I20      1.0000 0.46930  0.33130  0.87700  Biso   1.000  I
  I21      1.0000 0.12040  0.25790  0.57680  Biso   1.000  I
  I22      1.0000 0.15450  0.42920  0.47770  Biso   1.000  I
  I23      1.0000 0.85950  0.67010  0.79440  Biso   1.000  I
  I24      1.0000 0.75340  0.72360  0.68930  Biso   1.000  I
  C74      1.0000 0.12160  0.56800  0.42360  Biso   1.000  C
  H50      1.0000 0.12790  0.50960  0.44000  Biso   1.000  H
  Cl4      1.0000 0.13700  0.66000  0.45870  Biso   1.000  Cl
  Cl5      1.0000 0.14440  0.56930  0.37820  Biso   1.000  Cl
  Cl6      1.0000 0.07070  0.57700  0.40560  Biso   1.000  Cl
  C75      1.0000 0.88880  0.97480  0.34600  Biso   1.000  C
  H51      1.0000 0.91270  0.95000  0.36170  Biso   1.000  H
  C76      1.0000 0.86540  0.92240  0.31330  Biso   1.000  C
  H52      1.0000 0.87130  0.86030  0.30960  Biso   1.000  H
  C77      1.0000 0.83350  0.96290  0.28650  Biso   1.000  C
  C78      1.0000 0.82400  0.05190  0.29540  Biso   1.000  C
  H53      1.0000 0.80230  0.08190  0.27770  Biso   1.000  H
  C79      1.0000 0.84680  0.09540  0.33050  Biso   1.000  C
  H54      1.0000 0.83980  0.15530  0.33720  Biso   1.000  H
  C80      1.0000 0.81030  0.91030  0.25030  Biso   1.000  C
  C81      1.0000 0.76040  0.89990  0.19250  Biso   1.000  C
  C82      1.0000 0.79680  0.77840  0.21430  Biso   1.000  C
  C83      1.0000 0.78420  0.52590  0.19410  Biso   1.000  C
  H55      1.0000 0.76530  0.48530  0.17840  Biso   1.000  H
  C84      1.0000 0.77770  0.61890  0.18930  Biso   1.000  C
  H56      1.0000 0.75520  0.64120  0.16980  Biso   1.000  H
  C85      1.0000 0.80440  0.67830  0.21320  Biso   1.000  C
  C86      1.0000 0.83850  0.64410  0.23970  Biso   1.000  C
  H57      1.0000 0.85790  0.68370  0.25530  Biso   1.000  H
  C87      1.0000 0.84310  0.55000  0.24250  Biso   1.000  C
  H58      1.0000 0.86600  0.52590  0.26080  Biso   1.000  H
  C88      1.0000 0.68560  0.07340  0.14380  Biso   1.000  C
  H59      1.0000 0.67720  0.13160  0.15150  Biso   1.000  H
  C89      1.0000 0.71480  0.03070  0.17120  Biso   1.000  C
  H60      1.0000 0.72680  0.05980  0.19770  Biso   1.000  H
  C90      1.0000 0.72760  0.94580  0.16170  Biso   1.000  C
  C91      1.0000 0.70890  0.90580  0.12370  Biso   1.000  C
  H61      1.0000 0.71610  0.84640  0.11640  Biso   1.000  H
  C92      1.0000 0.68020  0.95060  0.09660  Biso   1.000  C
  H62      1.0000 0.66800  0.92200  0.07000  Biso   1.000  H
  C93      1.0000 0.56380  0.96620  0.01970  Biso   1.000  C
  H63      1.0000 0.57490  0.97440  0.99430  Biso   1.000  H
  C94      1.0000 0.53280  0.90670  0.01830  Biso   1.000  C
  H64      1.0000 0.52340  0.87250  0.99250  Biso   1.000  H
  C95      1.0000 0.51560  0.89730  0.05510  Biso   1.000  C
  C96      1.0000 0.53250  0.94480  0.09390  Biso   1.000  C
  H65      1.0000 0.52300  0.93650  0.12040  Biso   1.000  H
  C97      1.0000 0.56290  0.00310  0.09190  Biso   1.000  C
  H66      1.0000 0.57310  0.03830  0.11710  Biso   1.000  H
  C98      1.0000 0.48250  0.83460  0.05590  Biso   1.000  C
  C99      1.0000 0.44800  0.70960  0.03170  Biso   1.000  C
  C100     1.0000 0.43270  0.79120  0.08760  Biso   1.000  C
  C101     1.0000 0.40380  0.50030  0.97280  Biso   1.000  C
  H67      1.0000 0.38060  0.46500  0.97100  Biso   1.000  H
  C102     1.0000 0.40980  0.57430  0.00110  Biso   1.000  C
  H68      1.0000 0.39150  0.58710  0.01950  Biso   1.000  H
  C103     1.0000 0.44230  0.62900  0.00260  Biso   1.000  C
  C104     1.0000 0.46880  0.60410  0.97730  Biso   1.000  C
  H69      1.0000 0.49180  0.63960  0.97830  Biso   1.000  H
  C105     1.0000 0.46310  0.53020  0.95090  Biso   1.000  C
  H70      1.0000 0.48230  0.51460  0.93410  Biso   1.000  H
  C106     1.0000 0.39650  0.87240  0.18660  Biso   1.000  C
  H71      1.0000 0.40500  0.91040  0.21130  Biso   1.000  H
  C107     1.0000 0.42070  0.85990  0.15690  Biso   1.000  C
  H72      1.0000 0.44570  0.88860  0.16090  Biso   1.000  H
  C108     1.0000 0.40760  0.80370  0.12040  Biso   1.000  C
  C109     1.0000 0.37180  0.76260  0.11670  Biso   1.000  C
  H73      1.0000 0.36240  0.72370  0.09260  Biso   1.000  H
  C110     1.0000 0.34970  0.77770  0.14810  Biso   1.000  C
  H74      1.0000 0.32520  0.74740  0.14530  Biso   1.000  H
  N25      1.0000 0.87860  0.05750  0.35580  Biso   1.000  N
  N26      1.0000 0.82070  0.82410  0.24610  Biso   1.000  N
  N27      1.0000 0.76680  0.81310  0.18570  Biso   1.000  N
  N28      1.0000 0.77940  0.95130  0.22480  Biso   1.000  N
  N29      1.0000 0.81630  0.49180  0.22010  Biso   1.000  N
  N30      1.0000 0.66790  0.03500  0.10560  Biso   1.000  N
  N31      1.0000 0.57880  0.01320  0.05690  Biso   1.000  N
  N32      1.0000 0.47710  0.76740  0.02620  Biso   1.000  N
  N33      1.0000 0.42540  0.71720  0.06060  Biso   1.000  N
  N34      1.0000 0.46120  0.85140  0.08670  Biso   1.000  N
  N35      1.0000 0.43010  0.47750  0.94780  Biso   1.000  N
  N36      1.0000 0.36060  0.83180  0.18170  Biso   1.000  N
  Zn13     1.0000 0.91792  0.12800  0.40263  Biso   1.000  Zn
  Zn14     1.0000 0.62530  0.10278  0.06223  Biso   1.000  Zn
  Zn15     1.0000 0.32837  0.85387  0.23023  Biso   1.000  Zn
  I25      1.0000 0.88062  0.24386  0.43859  Biso   1.000  I
  I26      1.0000 0.97679  0.15415  0.36676  Biso   1.000  I
  I27      1.0000 0.60666  0.24306  0.10005  Biso   1.000  I
  I28      1.0000 0.64787  0.10292  0.98967  Biso   1.000  I
  I29      1.0000 0.37241  0.84042  0.30549  Biso   1.000  I
  I30      1.0000 0.26512  0.76363  0.20730  Biso   1.000  I
  Zn16     1.0000 0.90930  0.12300  0.40970  Biso   1.000  Zn
  Zn17     1.0000 0.63070  0.08520  0.04980  Biso   1.000  Zn
  Zn18     1.0000 0.31770  0.85510  0.21810  Biso   1.000  Zn
  I31      1.0000 0.86430  0.22720  0.44200  Biso   1.000  I
  I32      1.0000 0.96930  0.16870  0.37700  Biso   1.000  I
  I33      1.0000 0.62040  0.24210  0.07680  Biso   1.000  I
  I34      1.0000 0.65450  0.07080  0.97770  Biso   1.000  I
  I35      1.0000 0.35950  0.82990  0.29440  Biso   1.000  I
  I36      1.0000 0.25340  0.77640  0.18930  Biso   1.000  I
  C111     1.0000 0.62160  0.93200  0.92360  Biso   1.000  C
  H75      1.0000 0.62790  0.99040  0.94000  Biso   1.000  H
  Cl7      1.0000 0.63700  0.84000  0.95870  Biso   1.000  Cl
  Cl8      1.0000 0.64440  0.93070  0.87820  Biso   1.000  Cl
  Cl9      1.0000 0.57070  0.92300  0.90560  Biso   1.000  Cl
  C112     1.0000 0.38880  0.47480  0.34600  Biso   1.000  C
  H76      1.0000 0.41270  0.45000  0.36170  Biso   1.000  H
  C113     1.0000 0.36540  0.42240  0.31330  Biso   1.000  C
  H77      1.0000 0.37130  0.36030  0.30960  Biso   1.000  H
  C114     1.0000 0.33350  0.46290  0.28650  Biso   1.000  C
  C115     1.0000 0.32400  0.55190  0.29540  Biso   1.000  C
  H78      1.0000 0.30230  0.58190  0.27770  Biso   1.000  H
  C116     1.0000 0.34680  0.59540  0.33050  Biso   1.000  C
  H79      1.0000 0.33980  0.65530  0.33720  Biso   1.000  H
  C117     1.0000 0.31030  0.41030  0.25030  Biso   1.000  C
  C118     1.0000 0.26040  0.39990  0.19250  Biso   1.000  C
  C119     1.0000 0.29680  0.27840  0.21430  Biso   1.000  C
  C120     1.0000 0.28420  0.02590  0.19410  Biso   1.000  C
  H80      1.0000 0.26530  0.98530  0.17840  Biso   1.000  H
  C121     1.0000 0.27770  0.11890  0.18930  Biso   1.000  C
  H81      1.0000 0.25520  0.14120  0.16980  Biso   1.000  H
  C122     1.0000 0.30440  0.17830  0.21320  Biso   1.000  C
  C123     1.0000 0.33850  0.14410  0.23970  Biso   1.000  C
  H82      1.0000 0.35790  0.18370  0.25530  Biso   1.000  H
  C124     1.0000 0.34310  0.05000  0.24250  Biso   1.000  C
  H83      1.0000 0.36600  0.02590  0.26080  Biso   1.000  H
  C125     1.0000 0.18560  0.57340  0.14380  Biso   1.000  C
  H84      1.0000 0.17720  0.63160  0.15150  Biso   1.000  H
  C126     1.0000 0.21480  0.53070  0.17120  Biso   1.000  C
  H85      1.0000 0.22680  0.55980  0.19770  Biso   1.000  H
  C127     1.0000 0.22760  0.44580  0.16170  Biso   1.000  C
  C128     1.0000 0.20890  0.40580  0.12370  Biso   1.000  C
  H86      1.0000 0.21610  0.34640  0.11640  Biso   1.000  H
  C129     1.0000 0.18020  0.45060  0.09660  Biso   1.000  C
  H87      1.0000 0.16800  0.42200  0.07000  Biso   1.000  H
  C130     1.0000 0.06380  0.46620  0.01970  Biso   1.000  C
  H88      1.0000 0.07490  0.47440  0.99430  Biso   1.000  H
  C131     1.0000 0.03280  0.40670  0.01830  Biso   1.000  C
  H89      1.0000 0.02340  0.37250  0.99250  Biso   1.000  H
  C132     1.0000 0.01560  0.39730  0.05510  Biso   1.000  C
  C133     1.0000 0.03250  0.44480  0.09390  Biso   1.000  C
  H90      1.0000 0.02300  0.43650  0.12040  Biso   1.000  H
  C134     1.0000 0.06290  0.50310  0.09190  Biso   1.000  C
  H91      1.0000 0.07310  0.53830  0.11710  Biso   1.000  H
  C135     1.0000 0.98250  0.33460  0.05590  Biso   1.000  C
  C136     1.0000 0.94800  0.20960  0.03170  Biso   1.000  C
  C137     1.0000 0.93270  0.29120  0.08760  Biso   1.000  C
  C138     1.0000 0.90380  0.00030  0.97280  Biso   1.000  C
  H92      1.0000 0.88060  0.96500  0.97100  Biso   1.000  H
  C139     1.0000 0.90980  0.07430  0.00110  Biso   1.000  C
  H93      1.0000 0.89150  0.08710  0.01950  Biso   1.000  H
  C140     1.0000 0.94230  0.12900  0.00260  Biso   1.000  C
  C141     1.0000 0.96880  0.10410  0.97730  Biso   1.000  C
  H94      1.0000 0.99180  0.13960  0.97830  Biso   1.000  H
  C142     1.0000 0.96310  0.03020  0.95090  Biso   1.000  C
  H95      1.0000 0.98230  0.01460  0.93410  Biso   1.000  H
  C143     1.0000 0.89650  0.37240  0.18660  Biso   1.000  C
  H96      1.0000 0.90500  0.41040  0.21130  Biso   1.000  H
  C144     1.0000 0.92070  0.35990  0.15690  Biso   1.000  C
  H97      1.0000 0.94570  0.38860  0.16090  Biso   1.000  H
  C145     1.0000 0.90760  0.30370  0.12040  Biso   1.000  C
  C146     1.0000 0.87180  0.26260  0.11670  Biso   1.000  C
  H98      1.0000 0.86240  0.22370  0.09260  Biso   1.000  H
  C147     1.0000 0.84970  0.27770  0.14810  Biso   1.000  C
  H99      1.0000 0.82520  0.24740  0.14530  Biso   1.000  H
  N37      1.0000 0.37860  0.55750  0.35580  Biso   1.000  N
  N38      1.0000 0.32070  0.32410  0.24610  Biso   1.000  N
  N39      1.0000 0.26680  0.31310  0.18570  Biso   1.000  N
  N40      1.0000 0.27940  0.45130  0.22480  Biso   1.000  N
  N41      1.0000 0.31630  0.99180  0.22010  Biso   1.000  N
  N42      1.0000 0.16790  0.53500  0.10560  Biso   1.000  N
  N43      1.0000 0.07880  0.51320  0.05690  Biso   1.000  N
  N44      1.0000 0.97710  0.26740  0.02620  Biso   1.000  N
  N45      1.0000 0.92540  0.21720  0.06060  Biso   1.000  N
  N46      1.0000 0.96120  0.35140  0.08670  Biso   1.000  N
  N47      1.0000 0.93010  0.97750  0.94780  Biso   1.000  N
  N48      1.0000 0.86060  0.33180  0.18170  Biso   1.000  N
  Zn19     1.0000 0.41792  0.62800  0.40263  Biso   1.000  Zn
  Zn20     1.0000 0.12530  0.60278  0.06223  Biso   1.000  Zn
  Zn21     1.0000 0.82837  0.35387  0.23023  Biso   1.000  Zn
  I37      1.0000 0.38062  0.74386  0.43859  Biso   1.000  I
  I38      1.0000 0.47679  0.65415  0.36676  Biso   1.000  I
  I39      1.0000 0.10666  0.74306  0.10005  Biso   1.000  I
  I40      1.0000 0.14787  0.60292  0.98967  Biso   1.000  I
  I41      1.0000 0.87241  0.34042  0.30549  Biso   1.000  I
  I42      1.0000 0.76512  0.26363  0.20730  Biso   1.000  I
  Zn22     1.0000 0.40930  0.62300  0.40970  Biso   1.000  Zn
  Zn23     1.0000 0.13070  0.58520  0.04980  Biso   1.000  Zn
  Zn24     1.0000 0.81770  0.35510  0.21810  Biso   1.000  Zn
  I43      1.0000 0.36430  0.72720  0.44200  Biso   1.000  I
  I44      1.0000 0.46930  0.66870  0.37700  Biso   1.000  I
  I45      1.0000 0.12040  0.74210  0.07680  Biso   1.000  I
  I46      1.0000 0.15450  0.57080  0.97770  Biso   1.000  I
  I47      1.0000 0.85950  0.32990  0.29440  Biso   1.000  I
  I48      1.0000 0.75340  0.27640  0.18930  Biso   1.000  I
  C148     1.0000 0.12160  0.43200  0.92360  Biso   1.000  C
  H100     1.0000 0.12790  0.49040  0.94000  Biso   1.000  H
  Cl10     1.0000 0.13700  0.34000  0.95870  Biso   1.000  Cl
  Cl11     1.0000 0.14440  0.43070  0.87820  Biso   1.000  Cl
  Cl12     1.0000 0.07070  0.42300  0.90560  Biso   1.000  Cl
  C149     1.0000 0.11120  0.02520  0.65400  Biso   1.000  C
  H101     1.0000 0.08730  0.05000  0.63830  Biso   1.000  H
  C150     1.0000 0.13460  0.07760  0.68670  Biso   1.000  C
  H102     1.0000 0.12870  0.13970  0.69040  Biso   1.000  H
  C151     1.0000 0.16650  0.03710  0.71350  Biso   1.000  C
  C152     1.0000 0.17600  0.94810  0.70460  Biso   1.000  C
  H103     1.0000 0.19770  0.91810  0.72230  Biso   1.000  H
  C153     1.0000 0.15320  0.90460  0.66950  Biso   1.000  C
  H104     1.0000 0.16020  0.84470  0.66280  Biso   1.000  H
  C154     1.0000 0.18970  0.08970  0.74970  Biso   1.000  C
  C155     1.0000 0.23960  0.10010  0.80750  Biso   1.000  C
  C156     1.0000 0.20320  0.22160  0.78570  Biso   1.000  C
  C157     1.0000 0.21580  0.47410  0.80590  Biso   1.000  C
  H105     1.0000 0.23470  0.51470  0.82160  Biso   1.000  H
  C158     1.0000 0.22230  0.38110  0.81070  Biso   1.000  C
  H106     1.0000 0.24480  0.35880  0.83020  Biso   1.000  H
  C159     1.0000 0.19560  0.32170  0.78680  Biso   1.000  C
  C160     1.0000 0.16150  0.35590  0.76030  Biso   1.000  C
  H107     1.0000 0.14210  0.31630  0.74470  Biso   1.000  H
  C161     1.0000 0.15690  0.45000  0.75750  Biso   1.000  C
  H108     1.0000 0.13400  0.47410  0.73920  Biso   1.000  H
  C162     1.0000 0.31440  0.92660  0.85620  Biso   1.000  C
  H109     1.0000 0.32280  0.86840  0.84850  Biso   1.000  H
  C163     1.0000 0.28520  0.96930  0.82880  Biso   1.000  C
  H110     1.0000 0.27320  0.94020  0.80230  Biso   1.000  H
  C164     1.0000 0.27240  0.05420  0.83830  Biso   1.000  C
  C165     1.0000 0.29110  0.09420  0.87630  Biso   1.000  C
  H111     1.0000 0.28390  0.15360  0.88360  Biso   1.000  H
  C166     1.0000 0.31980  0.04940  0.90340  Biso   1.000  C
  H112     1.0000 0.33200  0.07800  0.93000  Biso   1.000  H
  C167     1.0000 0.43620  0.03380  0.98030  Biso   1.000  C
  H113     1.0000 0.42510  0.02560  0.00570  Biso   1.000  H
  C168     1.0000 0.46720  0.09330  0.98170  Biso   1.000  C
  H114     1.0000 0.47660  0.12750  0.00750  Biso   1.000  H
  C169     1.0000 0.48440  0.10270  0.94490  Biso   1.000  C
  C170     1.0000 0.46750  0.05520  0.90610  Biso   1.000  C
  H115     1.0000 0.47700  0.06350  0.87960  Biso   1.000  H
  C171     1.0000 0.43710  0.99690  0.90810  Biso   1.000  C
  H116     1.0000 0.42690  0.96170  0.88290  Biso   1.000  H
  C172     1.0000 0.51750  0.16540  0.94410  Biso   1.000  C
  C173     1.0000 0.55200  0.29040  0.96830  Biso   1.000  C
  C174     1.0000 0.56730  0.20880  0.91240  Biso   1.000  C
  C175     1.0000 0.59620  0.49970  0.02720  Biso   1.000  C
  H117     1.0000 0.61940  0.53500  0.02900  Biso   1.000  H
  C176     1.0000 0.59020  0.42570  0.99890  Biso   1.000  C
  H118     1.0000 0.60850  0.41290  0.98050  Biso   1.000  H
  C177     1.0000 0.55770  0.37100  0.99740  Biso   1.000  C
  C178     1.0000 0.53120  0.39590  0.02270  Biso   1.000  C
  H119     1.0000 0.50820  0.36040  0.02170  Biso   1.000  H
  C179     1.0000 0.53690  0.46980  0.04910  Biso   1.000  C
  H120     1.0000 0.51770  0.48540  0.06590  Biso   1.000  H
  C180     1.0000 0.60350  0.12760  0.81340  Biso   1.000  C
  H121     1.0000 0.59500  0.08960  0.78870  Biso   1.000  H
  C181     1.0000 0.57930  0.14010  0.84310  Biso   1.000  C
  H122     1.0000 0.55430  0.11140  0.83910  Biso   1.000  H
  C182     1.0000 0.59240  0.19630  0.87960  Biso   1.000  C
  C183     1.0000 0.62820  0.23740  0.88330  Biso   1.000  C
  H123     1.0000 0.63760  0.27630  0.90740  Biso   1.000  H
  C184     1.0000 0.65030  0.22230  0.85190  Biso   1.000  C
  H124     1.0000 0.67480  0.25260  0.85470  Biso   1.000  H
  N49      1.0000 0.12140  0.94250  0.64420  Biso   1.000  N
  N50      1.0000 0.17930  0.17590  0.75390  Biso   1.000  N
  N51      1.0000 0.23320  0.18690  0.81430  Biso   1.000  N
  N52      1.0000 0.22060  0.04870  0.77520  Biso   1.000  N
  N53      1.0000 0.18370  0.50820  0.77990  Biso   1.000  N
  N54      1.0000 0.33210  0.96500  0.89440  Biso   1.000  N
  N55      1.0000 0.42120  0.98680  0.94310  Biso   1.000  N
  N56      1.0000 0.52290  0.23260  0.97380  Biso   1.000  N
  N57      1.0000 0.57460  0.28280  0.93940  Biso   1.000  N
  N58      1.0000 0.53880  0.14860  0.91330  Biso   1.000  N
  N59      1.0000 0.56990  0.52250  0.05220  Biso   1.000  N
  N60      1.0000 0.63940  0.16820  0.81830  Biso   1.000  N
  Zn25     1.0000 0.08208  0.87200  0.59737  Biso   1.000  Zn
  Zn26     1.0000 0.37470  0.89722  0.93777  Biso   1.000  Zn
  Zn27     1.0000 0.67163  0.14613  0.76977  Biso   1.000  Zn
  I49      1.0000 0.11938  0.75614  0.56141  Biso   1.000  I
  I50      1.0000 0.02321  0.84585  0.63324  Biso   1.000  I
  I51      1.0000 0.39334  0.75694  0.89995  Biso   1.000  I
  I52      1.0000 0.35213  0.89708  0.01033  Biso   1.000  I
  I53      1.0000 0.62759  0.15958  0.69451  Biso   1.000  I
  I54      1.0000 0.73488  0.23637  0.79270  Biso   1.000  I
  Zn28     1.0000 0.09070  0.87700  0.59030  Biso   1.000  Zn
  Zn29     1.0000 0.36930  0.91480  0.95020  Biso   1.000  Zn
  Zn30     1.0000 0.68230  0.14490  0.78190  Biso   1.000  Zn
  I55      1.0000 0.13570  0.77280  0.55800  Biso   1.000  I
  I56      1.0000 0.03070  0.83130  0.62300  Biso   1.000  I
  I57      1.0000 0.37960  0.75790  0.92320  Biso   1.000  I
  I58      1.0000 0.34550  0.92920  0.02230  Biso   1.000  I
  I59      1.0000 0.64050  0.17010  0.70560  Biso   1.000  I
  I60      1.0000 0.74660  0.22360  0.81070  Biso   1.000  I
  C185     1.0000 0.37840  0.06800  0.07640  Biso   1.000  C
  H125     1.0000 0.37210  0.00960  0.06000  Biso   1.000  H
  Cl13     1.0000 0.36300  0.16000  0.04130  Biso   1.000  Cl
  Cl14     1.0000 0.35560  0.06930  0.12180  Biso   1.000  Cl
  Cl15     1.0000 0.42930  0.07700  0.09440  Biso   1.000  Cl
  C186     1.0000 0.61120  0.52520  0.65400  Biso   1.000  C
  H126     1.0000 0.58730  0.55000  0.63830  Biso   1.000  H
  C187     1.0000 0.63460  0.57760  0.68670  Biso   1.000  C
  H127     1.0000 0.62870  0.63970  0.69040  Biso   1.000  H
  C188     1.0000 0.66650  0.53710  0.71350  Biso   1.000  C
  C189     1.0000 0.67600  0.44810  0.70460  Biso   1.000  C
  H128     1.0000 0.69770  0.41810  0.72230  Biso   1.000  H
  C190     1.0000 0.65320  0.40460  0.66950  Biso   1.000  C
  H129     1.0000 0.66020  0.34470  0.66280  Biso   1.000  H
  C191     1.0000 0.68970  0.58970  0.74970  Biso   1.000  C
  C192     1.0000 0.73960  0.60010  0.80750  Biso   1.000  C
  C193     1.0000 0.70320  0.72160  0.78570  Biso   1.000  C
  C194     1.0000 0.71580  0.97410  0.80590  Biso   1.000  C
  H130     1.0000 0.73470  0.01470  0.82160  Biso   1.000  H
  C195     1.0000 0.72230  0.88110  0.81070  Biso   1.000  C
  H131     1.0000 0.74480  0.85880  0.83020  Biso   1.000  H
  C196     1.0000 0.69560  0.82170  0.78680  Biso   1.000  C
  C197     1.0000 0.66150  0.85590  0.76030  Biso   1.000  C
  H132     1.0000 0.64210  0.81630  0.74470  Biso   1.000  H
  C198     1.0000 0.65690  0.95000  0.75750  Biso   1.000  C
  H133     1.0000 0.63400  0.97410  0.73920  Biso   1.000  H
  C199     1.0000 0.81440  0.42660  0.85620  Biso   1.000  C
  H134     1.0000 0.82280  0.36840  0.84850  Biso   1.000  H
  C200     1.0000 0.78520  0.46930  0.82880  Biso   1.000  C
  H135     1.0000 0.77320  0.44020  0.80230  Biso   1.000  H
  C201     1.0000 0.77240  0.55420  0.83830  Biso   1.000  C
  C202     1.0000 0.79110  0.59420  0.87630  Biso   1.000  C
  H136     1.0000 0.78390  0.65360  0.88360  Biso   1.000  H
  C203     1.0000 0.81980  0.54940  0.90340  Biso   1.000  C
  H137     1.0000 0.83200  0.57800  0.93000  Biso   1.000  H
  C204     1.0000 0.93620  0.53380  0.98030  Biso   1.000  C
  H138     1.0000 0.92510  0.52560  0.00570  Biso   1.000  H
  C205     1.0000 0.96720  0.59330  0.98170  Biso   1.000  C
  H139     1.0000 0.97660  0.62750  0.00750  Biso   1.000  H
  C206     1.0000 0.98440  0.60270  0.94490  Biso   1.000  C
  C207     1.0000 0.96750  0.55520  0.90610  Biso   1.000  C
  H140     1.0000 0.97700  0.56350  0.87960  Biso   1.000  H
  C208     1.0000 0.93710  0.49690  0.90810  Biso   1.000  C
  H141     1.0000 0.92690  0.46170  0.88290  Biso   1.000  H
  C209     1.0000 0.01750  0.66540  0.94410  Biso   1.000  C
  C210     1.0000 0.05200  0.79040  0.96830  Biso   1.000  C
  C211     1.0000 0.06730  0.70880  0.91240  Biso   1.000  C
  C212     1.0000 0.09620  0.99970  0.02720  Biso   1.000  C
  H142     1.0000 0.11940  0.03500  0.02900  Biso   1.000  H
  C213     1.0000 0.09020  0.92570  0.99890  Biso   1.000  C
  H143     1.0000 0.10850  0.91290  0.98050  Biso   1.000  H
  C214     1.0000 0.05770  0.87100  0.99740  Biso   1.000  C
  C215     1.0000 0.03120  0.89590  0.02270  Biso   1.000  C
  H144     1.0000 0.00820  0.86040  0.02170  Biso   1.000  H
  C216     1.0000 0.03690  0.96980  0.04910  Biso   1.000  C
  H145     1.0000 0.01770  0.98540  0.06590  Biso   1.000  H
  C217     1.0000 0.10350  0.62760  0.81340  Biso   1.000  C
  H146     1.0000 0.09500  0.58960  0.78870  Biso   1.000  H
  C218     1.0000 0.07930  0.64010  0.84310  Biso   1.000  C
  H147     1.0000 0.05430  0.61140  0.83910  Biso   1.000  H
  C219     1.0000 0.09240  0.69630  0.87960  Biso   1.000  C
  C220     1.0000 0.12820  0.73740  0.88330  Biso   1.000  C
  H148     1.0000 0.13760  0.77630  0.90740  Biso   1.000  H
  C221     1.0000 0.15030  0.72230  0.85190  Biso   1.000  C
  H149     1.0000 0.17480  0.75260  0.85470  Biso   1.000  H
  N61      1.0000 0.62140  0.44250  0.64420  Biso   1.000  N
  N62      1.0000 0.67930  0.67590  0.75390  Biso   1.000  N
  N63      1.0000 0.73320  0.68690  0.81430  Biso   1.000  N
  N64      1.0000 0.72060  0.54870  0.77520  Biso   1.000  N
  N65      1.0000 0.68370  0.00820  0.77990  Biso   1.000  N
  N66      1.0000 0.83210  0.46500  0.89440  Biso   1.000  N
  N67      1.0000 0.92120  0.48680  0.94310  Biso   1.000  N
  N68      1.0000 0.02290  0.73260  0.97380  Biso   1.000  N
  N69      1.0000 0.07460  0.78280  0.93940  Biso   1.000  N
  N70      1.0000 0.03880  0.64860  0.91330  Biso   1.000  N
  N71      1.0000 0.06990  0.02250  0.05220  Biso   1.000  N
  N72      1.0000 0.13940  0.66820  0.81830  Biso   1.000  N
  Zn31     1.0000 0.58208  0.37200  0.59737  Biso   1.000  Zn
  Zn32     1.0000 0.87470  0.39722  0.93777  Biso   1.000  Zn
  Zn33     1.0000 0.17163  0.64613  0.76977  Biso   1.000  Zn
  I61      1.0000 0.61938  0.25614  0.56141  Biso   1.000  I
  I62      1.0000 0.52321  0.34585  0.63324  Biso   1.000  I
  I63      1.0000 0.89334  0.25694  0.89995  Biso   1.000  I
  I64      1.0000 0.85213  0.39708  0.01033  Biso   1.000  I
  I65      1.0000 0.12759  0.65958  0.69451  Biso   1.000  I
  I66      1.0000 0.23488  0.73637  0.79270  Biso   1.000  I
  Zn34     1.0000 0.59070  0.37700  0.59030  Biso   1.000  Zn
  Zn35     1.0000 0.86930  0.41480  0.95020  Biso   1.000  Zn
  Zn36     1.0000 0.18230  0.64490  0.78190  Biso   1.000  Zn
  I67      1.0000 0.63570  0.27280  0.55800  Biso   1.000  I
  I68      1.0000 0.53070  0.33130  0.62300  Biso   1.000  I
  I69      1.0000 0.87960  0.25790  0.92320  Biso   1.000  I
  I70      1.0000 0.84550  0.42920  0.02230  Biso   1.000  I
  I71      1.0000 0.14050  0.67010  0.70560  Biso   1.000  I
  I72      1.0000 0.24660  0.72360  0.81070  Biso   1.000  I
  C222     1.0000 0.87840  0.56800  0.07640  Biso   1.000  C
  H150     1.0000 0.87210  0.50960  0.06000  Biso   1.000  H
  Cl16     1.0000 0.86300  0.66000  0.04130  Biso   1.000  Cl
  Cl17     1.0000 0.85560  0.56930  0.12180  Biso   1.000  Cl
  Cl18     1.0000 0.92930  0.57700  0.09440  Biso   1.000  Cl
  C223     1.0000 0.11120  0.97480  0.15400  Biso   1.000  C
  H151     1.0000 0.08730  0.95000  0.13830  Biso   1.000  H
  C224     1.0000 0.13460  0.92240  0.18670  Biso   1.000  C
  H152     1.0000 0.12870  0.86030  0.19040  Biso   1.000  H
  C225     1.0000 0.16650  0.96290  0.21350  Biso   1.000  C
  C226     1.0000 0.17600  0.05190  0.20460  Biso   1.000  C
  H153     1.0000 0.19770  0.08190  0.22230  Biso   1.000  H
  C227     1.0000 0.15320  0.09540  0.16950  Biso   1.000  C
  H154     1.0000 0.16020  0.15530  0.16280  Biso   1.000  H
  C228     1.0000 0.18970  0.91030  0.24970  Biso   1.000  C
  C229     1.0000 0.23960  0.89990  0.30750  Biso   1.000  C
  C230     1.0000 0.20320  0.77840  0.28570  Biso   1.000  C
  C231     1.0000 0.21580  0.52590  0.30590  Biso   1.000  C
  H155     1.0000 0.23470  0.48530  0.32160  Biso   1.000  H
  C232     1.0000 0.22230  0.61890  0.31070  Biso   1.000  C
  H156     1.0000 0.24480  0.64120  0.33020  Biso   1.000  H
  C233     1.0000 0.19560  0.67830  0.28680  Biso   1.000  C
  C234     1.0000 0.16150  0.64410  0.26030  Biso   1.000  C
  H157     1.0000 0.14210  0.68370  0.24470  Biso   1.000  H
  C235     1.0000 0.15690  0.55000  0.25750  Biso   1.000  C
  H158     1.0000 0.13400  0.52590  0.23920  Biso   1.000  H
  C236     1.0000 0.31440  0.07340  0.35620  Biso   1.000  C
  H159     1.0000 0.32280  0.13160  0.34850  Biso   1.000  H
  C237     1.0000 0.28520  0.03070  0.32880  Biso   1.000  C
  H160     1.0000 0.27320  0.05980  0.30230  Biso   1.000  H
  C238     1.0000 0.27240  0.94580  0.33830  Biso   1.000  C
  C239     1.0000 0.29110  0.90580  0.37630  Biso   1.000  C
  H161     1.0000 0.28390  0.84640  0.38360  Biso   1.000  H
  C240     1.0000 0.31980  0.95060  0.40340  Biso   1.000  C
  H162     1.0000 0.33200  0.92200  0.43000  Biso   1.000  H
  C241     1.0000 0.43620  0.96620  0.48030  Biso   1.000  C
  H163     1.0000 0.42510  0.97440  0.50570  Biso   1.000  H
  C242     1.0000 0.46720  0.90670  0.48170  Biso   1.000  C
  H164     1.0000 0.47660  0.87250  0.50750  Biso   1.000  H
  C243     1.0000 0.48440  0.89730  0.44490  Biso   1.000  C
  C244     1.0000 0.46750  0.94480  0.40610  Biso   1.000  C
  H165     1.0000 0.47700  0.93650  0.37960  Biso   1.000  H
  C245     1.0000 0.43710  0.00310  0.40810  Biso   1.000  C
  H166     1.0000 0.42690  0.03830  0.38290  Biso   1.000  H
  C246     1.0000 0.51750  0.83460  0.44410  Biso   1.000  C
  C247     1.0000 0.55200  0.70960  0.46830  Biso   1.000  C
  C248     1.0000 0.56730  0.79120  0.41240  Biso   1.000  C
  C249     1.0000 0.59620  0.50030  0.52720  Biso   1.000  C
  H167     1.0000 0.61940  0.46500  0.52900  Biso   1.000  H
  C250     1.0000 0.59020  0.57430  0.49890  Biso   1.000  C
  H168     1.0000 0.60850  0.58710  0.48050  Biso   1.000  H
  C251     1.0000 0.55770  0.62900  0.49740  Biso   1.000  C
  C252     1.0000 0.53120  0.60410  0.52270  Biso   1.000  C
  H169     1.0000 0.50820  0.63960  0.52170  Biso   1.000  H
  C253     1.0000 0.53690  0.53020  0.54910  Biso   1.000  C
  H170     1.0000 0.51770  0.51460  0.56590  Biso   1.000  H
  C254     1.0000 0.60350  0.87240  0.31340  Biso   1.000  C
  H171     1.0000 0.59500  0.91040  0.28870  Biso   1.000  H
  C255     1.0000 0.57930  0.85990  0.34310  Biso   1.000  C
  H172     1.0000 0.55430  0.88860  0.33910  Biso   1.000  H
  C256     1.0000 0.59240  0.80370  0.37960  Biso   1.000  C
  C257     1.0000 0.62820  0.76260  0.38330  Biso   1.000  C
  H173     1.0000 0.63760  0.72370  0.40740  Biso   1.000  H
  C258     1.0000 0.65030  0.77770  0.35190  Biso   1.000  C
  H174     1.0000 0.67480  0.74740  0.35470  Biso   1.000  H
  N73      1.0000 0.12140  0.05750  0.14420  Biso   1.000  N
  N74      1.0000 0.17930  0.82410  0.25390  Biso   1.000  N
  N75      1.0000 0.23320  0.81310  0.31430  Biso   1.000  N
  N76      1.0000 0.22060  0.95130  0.27520  Biso   1.000  N
  N77      1.0000 0.18370  0.49180  0.27990  Biso   1.000  N
  N78      1.0000 0.33210  0.03500  0.39440  Biso   1.000  N
  N79      1.0000 0.42120  0.01320  0.44310  Biso   1.000  N
  N80      1.0000 0.52290  0.76740  0.47380  Biso   1.000  N
  N81      1.0000 0.57460  0.71720  0.43940  Biso   1.000  N
  N82      1.0000 0.53880  0.85140  0.41330  Biso   1.000  N
  N83      1.0000 0.56990  0.47750  0.55220  Biso   1.000  N
  N84      1.0000 0.63940  0.83180  0.31830  Biso   1.000  N
  Zn37     1.0000 0.08208  0.12800  0.09737  Biso   1.000  Zn
  Zn38     1.0000 0.37470  0.10278  0.43777  Biso   1.000  Zn
  Zn39     1.0000 0.67163  0.85387  0.26977  Biso   1.000  Zn
  I73      1.0000 0.11938  0.24386  0.06141  Biso   1.000  I
  I74      1.0000 0.02321  0.15415  0.13324  Biso   1.000  I
  I75      1.0000 0.39334  0.24306  0.39995  Biso   1.000  I
  I76      1.0000 0.35213  0.10292  0.51033  Biso   1.000  I
  I77      1.0000 0.62759  0.84042  0.19451  Biso   1.000  I
  I78      1.0000 0.73488  0.76363  0.29270  Biso   1.000  I
  Zn40     1.0000 0.09070  0.12300  0.09030  Biso   1.000  Zn
  Zn41     1.0000 0.36930  0.08520  0.45020  Biso   1.000  Zn
  Zn42     1.0000 0.68230  0.85510  0.28190  Biso   1.000  Zn
  I79      1.0000 0.13570  0.22720  0.05800  Biso   1.000  I
  I80      1.0000 0.03070  0.16870  0.12300  Biso   1.000  I
  I81      1.0000 0.37960  0.24210  0.42320  Biso   1.000  I
  I82      1.0000 0.34550  0.07080  0.52230  Biso   1.000  I
  I83      1.0000 0.64050  0.82990  0.20560  Biso   1.000  I
  I84      1.0000 0.74660  0.77640  0.31070  Biso   1.000  I
  C259     1.0000 0.37840  0.93200  0.57640  Biso   1.000  C
  H175     1.0000 0.37210  0.99040  0.56000  Biso   1.000  H
  Cl19     1.0000 0.36300  0.84000  0.54130  Biso   1.000  Cl
  Cl20     1.0000 0.35560  0.93070  0.62180  Biso   1.000  Cl
  Cl21     1.0000 0.42930  0.92300  0.59440  Biso   1.000  Cl
  C260     1.0000 0.61120  0.47480  0.15400  Biso   1.000  C
  H176     1.0000 0.58730  0.45000  0.13830  Biso   1.000  H
  C261     1.0000 0.63460  0.42240  0.18670  Biso   1.000  C
  H177     1.0000 0.62870  0.36030  0.19040  Biso   1.000  H
  C262     1.0000 0.66650  0.46290  0.21350  Biso   1.000  C
  C263     1.0000 0.67600  0.55190  0.20460  Biso   1.000  C
  H178     1.0000 0.69770  0.58190  0.22230  Biso   1.000  H
  C264     1.0000 0.65320  0.59540  0.16950  Biso   1.000  C
  H179     1.0000 0.66020  0.65530  0.16280  Biso   1.000  H
  C265     1.0000 0.68970  0.41030  0.24970  Biso   1.000  C
  C266     1.0000 0.73960  0.39990  0.30750  Biso   1.000  C
  C267     1.0000 0.70320  0.27840  0.28570  Biso   1.000  C
  C268     1.0000 0.71580  0.02590  0.30590  Biso   1.000  C
  H180     1.0000 0.73470  0.98530  0.32160  Biso   1.000  H
  C269     1.0000 0.72230  0.11890  0.31070  Biso   1.000  C
  H181     1.0000 0.74480  0.14120  0.33020  Biso   1.000  H
  C270     1.0000 0.69560  0.17830  0.28680  Biso   1.000  C
  C271     1.0000 0.66150  0.14410  0.26030  Biso   1.000  C
  H182     1.0000 0.64210  0.18370  0.24470  Biso   1.000  H
  C272     1.0000 0.65690  0.05000  0.25750  Biso   1.000  C
  H183     1.0000 0.63400  0.02590  0.23920  Biso   1.000  H
  C273     1.0000 0.81440  0.57340  0.35620  Biso   1.000  C
  H184     1.0000 0.82280  0.63160  0.34850  Biso   1.000  H
  C274     1.0000 0.78520  0.53070  0.32880  Biso   1.000  C
  H185     1.0000 0.77320  0.55980  0.30230  Biso   1.000  H
  C275     1.0000 0.77240  0.44580  0.33830  Biso   1.000  C
  C276     1.0000 0.79110  0.40580  0.37630  Biso   1.000  C
  H186     1.0000 0.78390  0.34640  0.38360  Biso   1.000  H
  C277     1.0000 0.81980  0.45060  0.40340  Biso   1.000  C
  H187     1.0000 0.83200  0.42200  0.43000  Biso   1.000  H
  C278     1.0000 0.93620  0.46620  0.48030  Biso   1.000  C
  H188     1.0000 0.92510  0.47440  0.50570  Biso   1.000  H
  C279     1.0000 0.96720  0.40670  0.48170  Biso   1.000  C
  H189     1.0000 0.97660  0.37250  0.50750  Biso   1.000  H
  C280     1.0000 0.98440  0.39730  0.44490  Biso   1.000  C
  C281     1.0000 0.96750  0.44480  0.40610  Biso   1.000  C
  H190     1.0000 0.97700  0.43650  0.37960  Biso   1.000  H
  C282     1.0000 0.93710  0.50310  0.40810  Biso   1.000  C
  H191     1.0000 0.92690  0.53830  0.38290  Biso   1.000  H
  C283     1.0000 0.01750  0.33460  0.44410  Biso   1.000  C
  C284     1.0000 0.05200  0.20960  0.46830  Biso   1.000  C
  C285     1.0000 0.06730  0.29120  0.41240  Biso   1.000  C
  C286     1.0000 0.09620  0.00030  0.52720  Biso   1.000  C
  H192     1.0000 0.11940  0.96500  0.52900  Biso   1.000  H
  C287     1.0000 0.09020  0.07430  0.49890  Biso   1.000  C
  H193     1.0000 0.10850  0.08710  0.48050  Biso   1.000  H
  C288     1.0000 0.05770  0.12900  0.49740  Biso   1.000  C
  C289     1.0000 0.03120  0.10410  0.52270  Biso   1.000  C
  H194     1.0000 0.00820  0.13960  0.52170  Biso   1.000  H
  C290     1.0000 0.03690  0.03020  0.54910  Biso   1.000  C
  H195     1.0000 0.01770  0.01460  0.56590  Biso   1.000  H
  C291     1.0000 0.10350  0.37240  0.31340  Biso   1.000  C
  H196     1.0000 0.09500  0.41040  0.28870  Biso   1.000  H
  C292     1.0000 0.07930  0.35990  0.34310  Biso   1.000  C
  H197     1.0000 0.05430  0.38860  0.33910  Biso   1.000  H
  C293     1.0000 0.09240  0.30370  0.37960  Biso   1.000  C
  C294     1.0000 0.12820  0.26260  0.38330  Biso   1.000  C
  H198     1.0000 0.13760  0.22370  0.40740  Biso   1.000  H
  C295     1.0000 0.15030  0.27770  0.35190  Biso   1.000  C
  H199     1.0000 0.17480  0.24740  0.35470  Biso   1.000  H
  N85      1.0000 0.62140  0.55750  0.14420  Biso   1.000  N
  N86      1.0000 0.67930  0.32410  0.25390  Biso   1.000  N
  N87      1.0000 0.73320  0.31310  0.31430  Biso   1.000  N
  N88      1.0000 0.72060  0.45130  0.27520  Biso   1.000  N
  N89      1.0000 0.68370  0.99180  0.27990  Biso   1.000  N
  N90      1.0000 0.83210  0.53500  0.39440  Biso   1.000  N
  N91      1.0000 0.92120  0.51320  0.44310  Biso   1.000  N
  N92      1.0000 0.02290  0.26740  0.47380  Biso   1.000  N
  N93      1.0000 0.07460  0.21720  0.43940  Biso   1.000  N
  N94      1.0000 0.03880  0.35140  0.41330  Biso   1.000  N
  N95      1.0000 0.06990  0.97750  0.55220  Biso   1.000  N
  N96      1.0000 0.13940  0.33180  0.31830  Biso   1.000  N
  Zn43     1.0000 0.58208  0.62800  0.09737  Biso   1.000  Zn
  Zn44     1.0000 0.87470  0.60278  0.43777  Biso   1.000  Zn
  Zn45     1.0000 0.17163  0.35387  0.26977  Biso   1.000  Zn
  I85      1.0000 0.61938  0.74386  0.06141  Biso   1.000  I
  I86      1.0000 0.52321  0.65415  0.13324  Biso   1.000  I
  I87      1.0000 0.89334  0.74306  0.39995  Biso   1.000  I
  I88      1.0000 0.85213  0.60292  0.51033  Biso   1.000  I
  I89      1.0000 0.12759  0.34042  0.19451  Biso   1.000  I
  I90      1.0000 0.23488  0.26363  0.29270  Biso   1.000  I
  Zn46     1.0000 0.59070  0.62300  0.09030  Biso   1.000  Zn
  Zn47     1.0000 0.86930  0.58520  0.45020  Biso   1.000  Zn
  Zn48     1.0000 0.18230  0.35510  0.28190  Biso   1.000  Zn
  I91      1.0000 0.63570  0.72720  0.05800  Biso   1.000  I
  I92      1.0000 0.53070  0.66870  0.12300  Biso   1.000  I
  I93      1.0000 0.87960  0.74210  0.42320  Biso   1.000  I
  I94      1.0000 0.84550  0.57080  0.52230  Biso   1.000  I
  I95      1.0000 0.14050  0.32990  0.20560  Biso   1.000  I
  I96      1.0000 0.24660  0.27640  0.31070  Biso   1.000  I
  C296     1.0000 0.87840  0.43200  0.57640  Biso   1.000  C
  H200     1.0000 0.87210  0.49040  0.56000  Biso   1.000  H
  Cl22     1.0000 0.86300  0.34000  0.54130  Biso   1.000  Cl
  Cl23     1.0000 0.85560  0.43070  0.62180  Biso   1.000  Cl
  Cl24     1.0000 0.92930  0.42300  0.59440  Biso   1.000  Cl
