data_image0
_cell_length_a       34.936
_cell_length_b       14.9785
_cell_length_c       30.825
_cell_angle_alpha    90
_cell_angle_beta     102.857
_cell_angle_gamma    90

_symmetry_space_group_name_H-M    "P 1"
_symmetry_int_tables_number       1

loop_
  _symmetry_equiv_pos_as_xyz
  'x, y, z'

loop_
  _atom_site_label
  _atom_site_occupancy
  _atom_site_fract_x
  _atom_site_fract_y
  _atom_site_fract_z
  _atom_site_thermal_displace_type
  _atom_site_B_iso_or_equiv
  _atom_site_type_symbol
  C1       1.0000 0.35290  0.41500  0.83180  Biso   1.000  C
  H1       1.0000 0.34690  0.35590  0.83920  Biso   1.000  H
  C2       1.0000 0.32680  0.45960  0.79840  Biso   1.000  C
  H2       1.0000 0.30320  0.43150  0.78330  Biso   1.000  H
  C3       1.0000 0.33560  0.54570  0.78720  Biso   1.000  C
  C4       1.0000 0.37040  0.58320  0.81040  Biso   1.000  C
  H3       1.0000 0.37740  0.64230  0.80410  Biso   1.000  H
  C5       1.0000 0.39490  0.53340  0.84280  Biso   1.000  C
  H4       1.0000 0.41920  0.55870  0.85770  Biso   1.000  H
  C6       1.0000 0.30940  0.59690  0.75150  Biso   1.000  C
  C7       1.0000 0.25620  0.60450  0.69630  Biso   1.000  C
  C8       1.0000 0.29280  0.72710  0.71650  Biso   1.000  C
  C9       1.0000 0.17030  0.55280  0.60270  Biso   1.000  C
  H5       1.0000 0.15430  0.58210  0.57780  Biso   1.000  H
  C10      1.0000 0.19880  0.60080  0.62950  Biso   1.000  C
  H6       1.0000 0.20250  0.66200  0.62350  Biso   1.000  H
  C11      1.0000 0.22280  0.55920  0.66620  Biso   1.000  C
  C12      1.0000 0.21510  0.46990  0.67360  Biso   1.000  C
  H7       1.0000 0.23010  0.43870  0.69850  Biso   1.000  H
  C13      1.0000 0.18460  0.42740  0.64360  Biso   1.000  C
  H8       1.0000 0.17920  0.36660  0.64870  Biso   1.000  H
  C14      1.0000 0.33480  0.95580  0.74160  Biso   1.000  C
  H9       1.0000 0.35610  0.98250  0.76210  Biso   1.000  H
  C15      1.0000 0.33060  0.86360  0.74230  Biso   1.000  C
  H10      1.0000 0.34910  0.82800  0.76220  Biso   1.000  H
  C16      1.0000 0.29900  0.82470  0.71360  Biso   1.000  C
  C17      1.0000 0.27290  0.87950  0.68480  Biso   1.000  C
  H11      1.0000 0.25090  0.85550  0.66430  Biso   1.000  H
  C18      1.0000 0.28010  0.97090  0.68710  Biso   1.000  C
  H12      1.0000 0.26190  0.00870  0.66810  Biso   1.000  H
  C19      1.0000 0.34510  0.22010  0.63790  Biso   1.000  C
  H13      1.0000 0.32050  0.24980  0.63300  Biso   1.000  H
  C20      1.0000 0.36990  0.23780  0.60980  Biso   1.000  C
  H14      1.0000 0.36290  0.28090  0.58670  Biso   1.000  H
  C21      1.0000 0.40520  0.19200  0.61540  Biso   1.000  C
  C22      1.0000 0.41460  0.13330  0.65110  Biso   1.000  C
  H15      1.0000 0.43890  0.10200  0.65680  Biso   1.000  H
  C23      1.0000 0.38920  0.12130  0.67720  Biso   1.000  C
  H16      1.0000 0.39610  0.08050  0.70130  Biso   1.000  H
  C24      1.0000 0.43190  0.20660  0.58450  Biso   1.000  C
  C25      1.0000 0.45050  0.28670  0.53100  Biso   1.000  C
  C26      1.0000 0.48160  0.15840  0.55530  Biso   1.000  C
  C27      1.0000 0.55370  0.97170  0.58700  Biso   1.000  C
  H17      1.0000 0.56010  0.92700  0.60940  Biso   1.000  H
  C28      1.0000 0.52380  0.03090  0.58880  Biso   1.000  C
  H18      1.0000 0.51100  0.02960  0.61290  Biso   1.000  H
  C29      1.0000 0.51290  0.09300  0.55420  Biso   1.000  C
  C30      1.0000 0.53210  0.09110  0.51970  Biso   1.000  C
  H19      1.0000 0.52450  0.13060  0.49520  Biso   1.000  H
  C31      1.0000 0.56230  0.03120  0.52100  Biso   1.000  C
  H20      1.0000 0.57520  0.03010  0.49690  Biso   1.000  H
  C32      1.0000 0.41430  0.49950  0.47340  Biso   1.000  C
  H21      1.0000 0.39350  0.54070  0.47260  Biso   1.000  H
  C33      1.0000 0.41740  0.42630  0.50090  Biso   1.000  C
  H22      1.0000 0.39870  0.41720  0.51860  Biso   1.000  H
  C34      1.0000 0.44720  0.36710  0.50270  Biso   1.000  C
  C35      1.0000 0.47470  0.38300  0.47710  Biso   1.000  C
  H23      1.0000 0.49620  0.34380  0.47820  Biso   1.000  H
  C36      1.0000 0.46970  0.45660  0.45020  Biso   1.000  C
  H24      1.0000 0.48840  0.46740  0.43260  Biso   1.000  H
  N1       1.0000 0.38600  0.45220  0.85390  Biso   1.000  N
  N2       1.0000 0.27830  0.55550  0.72760  Biso   1.000  N
  N3       1.0000 0.26120  0.69080  0.68880  Biso   1.000  N
  N4       1.0000 0.31870  0.68300  0.74690  Biso   1.000  N
  N5       1.0000 0.16330  0.46760  0.60890  Biso   1.000  N
  N6       1.0000 0.31040  0.00840  0.71360  Biso   1.000  N
  N7       1.0000 0.35450  0.16300  0.67150  Biso   1.000  N
  N8       1.0000 0.45960  0.14460  0.58520  Biso   1.000  N
  N9       1.0000 0.42570  0.27810  0.55830  Biso   1.000  N
  N10      1.0000 0.47800  0.22710  0.52730  Biso   1.000  N
  N11      1.0000 0.57390  0.97520  0.55450  Biso   1.000  N
  N12      1.0000 0.44010  0.51420  0.44740  Biso   1.000  N
  Zn1      1.0000 0.31520  0.14670  0.71270  Biso   1.000  Zn
  I1       1.0000 0.24911  0.22030  0.68216  Biso   1.000  I
  I2       1.0000 0.35704  0.18710  0.78856  Biso   1.000  I
  Zn2      1.0000 0.62460  0.89940  0.55930  Biso   1.000  Zn
  I3       1.0000 0.61381  0.75222  0.59602  Biso   1.000  I
  I4       1.0000 0.64923  0.91950  0.48833  Biso   1.000  I
  Zn3      1.0000 0.42905  0.61541  0.39990  Biso   1.000  Zn
  I5       1.0000 0.39564  0.73902  0.43378  Biso   1.000  I
  I6       1.0000 0.48766  0.63123  0.36464  Biso   1.000  I
  Zn4      1.0000 0.32670  0.14320  0.72230  Biso   1.000  Zn
  I7       1.0000 0.26206  0.22870  0.69690  Biso   1.000  I
  I8       1.0000 0.37262  0.17020  0.79693  Biso   1.000  I
  Zn5      1.0000 0.62150  0.88980  0.56590  Biso   1.000  Zn
  I9       1.0000 0.60310  0.75060  0.60330  Biso   1.000  I
  I10      1.0000 0.64870  0.89060  0.49720  Biso   1.000  I
  Zn6      1.0000 0.41750  0.62030  0.40590  Biso   1.000  Zn
  I11      1.0000 0.37820  0.73260  0.43810  Biso   1.000  I
  I12      1.0000 0.47380  0.65580  0.36950  Biso   1.000  I
  C37      1.0000 0.85290  0.91500  0.83180  Biso   1.000  C
  H25      1.0000 0.84690  0.85590  0.83920  Biso   1.000  H
  C38      1.0000 0.82680  0.95960  0.79840  Biso   1.000  C
  H26      1.0000 0.80320  0.93150  0.78330  Biso   1.000  H
  C39      1.0000 0.83560  0.04570  0.78720  Biso   1.000  C
  C40      1.0000 0.87040  0.08320  0.81040  Biso   1.000  C
  H27      1.0000 0.87740  0.14230  0.80410  Biso   1.000  H
  C41      1.0000 0.89490  0.03340  0.84280  Biso   1.000  C
  H28      1.0000 0.91920  0.05870  0.85770  Biso   1.000  H
  C42      1.0000 0.80940  0.09690  0.75150  Biso   1.000  C
  C43      1.0000 0.75620  0.10450  0.69630  Biso   1.000  C
  C44      1.0000 0.79280  0.22710  0.71650  Biso   1.000  C
  C45      1.0000 0.67030  0.05280  0.60270  Biso   1.000  C
  H29      1.0000 0.65430  0.08210  0.57780  Biso   1.000  H
  C46      1.0000 0.69880  0.10080  0.62950  Biso   1.000  C
  H30      1.0000 0.70250  0.16200  0.62350  Biso   1.000  H
  C47      1.0000 0.72280  0.05920  0.66620  Biso   1.000  C
  C48      1.0000 0.71510  0.96990  0.67360  Biso   1.000  C
  H31      1.0000 0.73010  0.93870  0.69850  Biso   1.000  H
  C49      1.0000 0.68460  0.92740  0.64360  Biso   1.000  C
  H32      1.0000 0.67920  0.86660  0.64870  Biso   1.000  H
  C50      1.0000 0.83480  0.45580  0.74160  Biso   1.000  C
  H33      1.0000 0.85610  0.48250  0.76210  Biso   1.000  H
  C51      1.0000 0.83060  0.36360  0.74230  Biso   1.000  C
  H34      1.0000 0.84910  0.32800  0.76220  Biso   1.000  H
  C52      1.0000 0.79900  0.32470  0.71360  Biso   1.000  C
  C53      1.0000 0.77290  0.37950  0.68480  Biso   1.000  C
  H35      1.0000 0.75090  0.35550  0.66430  Biso   1.000  H
  C54      1.0000 0.78010  0.47090  0.68710  Biso   1.000  C
  H36      1.0000 0.76190  0.50870  0.66810  Biso   1.000  H
  C55      1.0000 0.84510  0.72010  0.63790  Biso   1.000  C
  H37      1.0000 0.82050  0.74980  0.63300  Biso   1.000  H
  C56      1.0000 0.86990  0.73780  0.60980  Biso   1.000  C
  H38      1.0000 0.86290  0.78090  0.58670  Biso   1.000  H
  C57      1.0000 0.90520  0.69200  0.61540  Biso   1.000  C
  C58      1.0000 0.91460  0.63330  0.65110  Biso   1.000  C
  H39      1.0000 0.93890  0.60200  0.65680  Biso   1.000  H
  C59      1.0000 0.88920  0.62130  0.67720  Biso   1.000  C
  H40      1.0000 0.89610  0.58050  0.70130  Biso   1.000  H
  C60      1.0000 0.93190  0.70660  0.58450  Biso   1.000  C
  C61      1.0000 0.95050  0.78670  0.53100  Biso   1.000  C
  C62      1.0000 0.98160  0.65840  0.55530  Biso   1.000  C
  C63      1.0000 0.05370  0.47170  0.58700  Biso   1.000  C
  H41      1.0000 0.06010  0.42700  0.60940  Biso   1.000  H
  C64      1.0000 0.02380  0.53090  0.58880  Biso   1.000  C
  H42      1.0000 0.01100  0.52960  0.61290  Biso   1.000  H
  C65      1.0000 0.01290  0.59300  0.55420  Biso   1.000  C
  C66      1.0000 0.03210  0.59110  0.51970  Biso   1.000  C
  H43      1.0000 0.02450  0.63060  0.49520  Biso   1.000  H
  C67      1.0000 0.06230  0.53120  0.52100  Biso   1.000  C
  H44      1.0000 0.07520  0.53010  0.49690  Biso   1.000  H
  C68      1.0000 0.91430  0.99950  0.47340  Biso   1.000  C
  H45      1.0000 0.89350  0.04070  0.47260  Biso   1.000  H
  C69      1.0000 0.91740  0.92630  0.50090  Biso   1.000  C
  H46      1.0000 0.89870  0.91720  0.51860  Biso   1.000  H
  C70      1.0000 0.94720  0.86710  0.50270  Biso   1.000  C
  C71      1.0000 0.97470  0.88300  0.47710  Biso   1.000  C
  H47      1.0000 0.99620  0.84380  0.47820  Biso   1.000  H
  C72      1.0000 0.96970  0.95660  0.45020  Biso   1.000  C
  H48      1.0000 0.98840  0.96740  0.43260  Biso   1.000  H
  N13      1.0000 0.88600  0.95220  0.85390  Biso   1.000  N
  N14      1.0000 0.77830  0.05550  0.72760  Biso   1.000  N
  N15      1.0000 0.76120  0.19080  0.68880  Biso   1.000  N
  N16      1.0000 0.81870  0.18300  0.74690  Biso   1.000  N
  N17      1.0000 0.66330  0.96760  0.60890  Biso   1.000  N
  N18      1.0000 0.81040  0.50840  0.71360  Biso   1.000  N
  N19      1.0000 0.85450  0.66300  0.67150  Biso   1.000  N
  N20      1.0000 0.95960  0.64460  0.58520  Biso   1.000  N
  N21      1.0000 0.92570  0.77810  0.55830  Biso   1.000  N
  N22      1.0000 0.97800  0.72710  0.52730  Biso   1.000  N
  N23      1.0000 0.07390  0.47520  0.55450  Biso   1.000  N
  N24      1.0000 0.94010  0.01420  0.44740  Biso   1.000  N
  Zn7      1.0000 0.81520  0.64670  0.71270  Biso   1.000  Zn
  I13      1.0000 0.74911  0.72030  0.68216  Biso   1.000  I
  I14      1.0000 0.85704  0.68710  0.78856  Biso   1.000  I
  Zn8      1.0000 0.12460  0.39940  0.55930  Biso   1.000  Zn
  I15      1.0000 0.11381  0.25222  0.59602  Biso   1.000  I
  I16      1.0000 0.14923  0.41950  0.48833  Biso   1.000  I
  Zn9      1.0000 0.92905  0.11541  0.39990  Biso   1.000  Zn
  I17      1.0000 0.89564  0.23902  0.43378  Biso   1.000  I
  I18      1.0000 0.98766  0.13123  0.36464  Biso   1.000  I
  Zn10     1.0000 0.82670  0.64320  0.72230  Biso   1.000  Zn
  I19      1.0000 0.76206  0.72870  0.69690  Biso   1.000  I
  I20      1.0000 0.87262  0.67020  0.79693  Biso   1.000  I
  Zn11     1.0000 0.12150  0.38980  0.56590  Biso   1.000  Zn
  I21      1.0000 0.10310  0.25060  0.60330  Biso   1.000  I
  I22      1.0000 0.14870  0.39060  0.49720  Biso   1.000  I
  Zn12     1.0000 0.91750  0.12030  0.40590  Biso   1.000  Zn
  I23      1.0000 0.87820  0.23260  0.43810  Biso   1.000  I
  I24      1.0000 0.97380  0.15580  0.36950  Biso   1.000  I
  C73      1.0000 0.35290  0.58500  0.33180  Biso   1.000  C
  H49      1.0000 0.34690  0.64410  0.33920  Biso   1.000  H
  C74      1.0000 0.32680  0.54040  0.29840  Biso   1.000  C
  H50      1.0000 0.30320  0.56850  0.28330  Biso   1.000  H
  C75      1.0000 0.33560  0.45430  0.28720  Biso   1.000  C
  C76      1.0000 0.37040  0.41680  0.31040  Biso   1.000  C
  H51      1.0000 0.37740  0.35770  0.30410  Biso   1.000  H
  C77      1.0000 0.39490  0.46660  0.34280  Biso   1.000  C
  H52      1.0000 0.41920  0.44130  0.35770  Biso   1.000  H
  C78      1.0000 0.30940  0.40310  0.25150  Biso   1.000  C
  C79      1.0000 0.25620  0.39550  0.19630  Biso   1.000  C
  C80      1.0000 0.29280  0.27290  0.21650  Biso   1.000  C
  C81      1.0000 0.17030  0.44720  0.10270  Biso   1.000  C
  H53      1.0000 0.15430  0.41790  0.07780  Biso   1.000  H
  C82      1.0000 0.19880  0.39920  0.12950  Biso   1.000  C
  H54      1.0000 0.20250  0.33800  0.12350  Biso   1.000  H
  C83      1.0000 0.22280  0.44080  0.16620  Biso   1.000  C
  C84      1.0000 0.21510  0.53010  0.17360  Biso   1.000  C
  H55      1.0000 0.23010  0.56130  0.19850  Biso   1.000  H
  C85      1.0000 0.18460  0.57260  0.14360  Biso   1.000  C
  H56      1.0000 0.17920  0.63340  0.14870  Biso   1.000  H
  C86      1.0000 0.33480  0.04420  0.24160  Biso   1.000  C
  H57      1.0000 0.35610  0.01750  0.26210  Biso   1.000  H
  C87      1.0000 0.33060  0.13640  0.24230  Biso   1.000  C
  H58      1.0000 0.34910  0.17200  0.26220  Biso   1.000  H
  C88      1.0000 0.29900  0.17530  0.21360  Biso   1.000  C
  C89      1.0000 0.27290  0.12050  0.18480  Biso   1.000  C
  H59      1.0000 0.25090  0.14450  0.16430  Biso   1.000  H
  C90      1.0000 0.28010  0.02910  0.18710  Biso   1.000  C
  H60      1.0000 0.26190  0.99130  0.16810  Biso   1.000  H
  C91      1.0000 0.34510  0.77990  0.13790  Biso   1.000  C
  H61      1.0000 0.32050  0.75020  0.13300  Biso   1.000  H
  C92      1.0000 0.36990  0.76220  0.10980  Biso   1.000  C
  H62      1.0000 0.36290  0.71910  0.08670  Biso   1.000  H
  C93      1.0000 0.40520  0.80800  0.11540  Biso   1.000  C
  C94      1.0000 0.41460  0.86670  0.15110  Biso   1.000  C
  H63      1.0000 0.43890  0.89800  0.15680  Biso   1.000  H
  C95      1.0000 0.38920  0.87870  0.17720  Biso   1.000  C
  H64      1.0000 0.39610  0.91950  0.20130  Biso   1.000  H
  C96      1.0000 0.43190  0.79340  0.08450  Biso   1.000  C
  C97      1.0000 0.45050  0.71330  0.03100  Biso   1.000  C
  C98      1.0000 0.48160  0.84160  0.05530  Biso   1.000  C
  C99      1.0000 0.55370  0.02830  0.08700  Biso   1.000  C
  H65      1.0000 0.56010  0.07300  0.10940  Biso   1.000  H
  C100     1.0000 0.52380  0.96910  0.08880  Biso   1.000  C
  H66      1.0000 0.51100  0.97040  0.11290  Biso   1.000  H
  C101     1.0000 0.51290  0.90700  0.05420  Biso   1.000  C
  C102     1.0000 0.53210  0.90890  0.01970  Biso   1.000  C
  H67      1.0000 0.52450  0.86940  0.99520  Biso   1.000  H
  C103     1.0000 0.56230  0.96880  0.02100  Biso   1.000  C
  H68      1.0000 0.57520  0.96990  0.99690  Biso   1.000  H
  C104     1.0000 0.41430  0.50050  0.97340  Biso   1.000  C
  H69      1.0000 0.39350  0.45930  0.97260  Biso   1.000  H
  C105     1.0000 0.41740  0.57370  0.00090  Biso   1.000  C
  H70      1.0000 0.39870  0.58280  0.01860  Biso   1.000  H
  C106     1.0000 0.44720  0.63290  0.00270  Biso   1.000  C
  C107     1.0000 0.47470  0.61700  0.97710  Biso   1.000  C
  H71      1.0000 0.49620  0.65620  0.97820  Biso   1.000  H
  C108     1.0000 0.46970  0.54340  0.95020  Biso   1.000  C
  H72      1.0000 0.48840  0.53260  0.93260  Biso   1.000  H
  N25      1.0000 0.38600  0.54780  0.35390  Biso   1.000  N
  N26      1.0000 0.27830  0.44450  0.22760  Biso   1.000  N
  N27      1.0000 0.26120  0.30920  0.18880  Biso   1.000  N
  N28      1.0000 0.31870  0.31700  0.24690  Biso   1.000  N
  N29      1.0000 0.16330  0.53240  0.10890  Biso   1.000  N
  N30      1.0000 0.31040  0.99160  0.21360  Biso   1.000  N
  N31      1.0000 0.35450  0.83700  0.17150  Biso   1.000  N
  N32      1.0000 0.45960  0.85540  0.08520  Biso   1.000  N
  N33      1.0000 0.42570  0.72190  0.05830  Biso   1.000  N
  N34      1.0000 0.47800  0.77290  0.02730  Biso   1.000  N
  N35      1.0000 0.57390  0.02480  0.05450  Biso   1.000  N
  N36      1.0000 0.44010  0.48580  0.94740  Biso   1.000  N
  Zn13     1.0000 0.31520  0.85330  0.21270  Biso   1.000  Zn
  I25      1.0000 0.24911  0.77970  0.18216  Biso   1.000  I
  I26      1.0000 0.35704  0.81290  0.28856  Biso   1.000  I
  Zn14     1.0000 0.62460  0.10060  0.05930  Biso   1.000  Zn
  I27      1.0000 0.61381  0.24778  0.09602  Biso   1.000  I
  I28      1.0000 0.64923  0.08050  0.98833  Biso   1.000  I
  Zn15     1.0000 0.42905  0.38459  0.89990  Biso   1.000  Zn
  I29      1.0000 0.39564  0.26098  0.93378  Biso   1.000  I
  I30      1.0000 0.48766  0.36877  0.86464  Biso   1.000  I
  Zn16     1.0000 0.32670  0.85680  0.22230  Biso   1.000  Zn
  I31      1.0000 0.26206  0.77130  0.19690  Biso   1.000  I
  I32      1.0000 0.37262  0.82980  0.29693  Biso   1.000  I
  Zn17     1.0000 0.62150  0.11020  0.06590  Biso   1.000  Zn
  I33      1.0000 0.60310  0.24940  0.10330  Biso   1.000  I
  I34      1.0000 0.64870  0.10940  0.99720  Biso   1.000  I
  Zn18     1.0000 0.41750  0.37970  0.90590  Biso   1.000  Zn
  I35      1.0000 0.37820  0.26740  0.93810  Biso   1.000  I
  I36      1.0000 0.47380  0.34420  0.86950  Biso   1.000  I
  C109     1.0000 0.85290  0.08500  0.33180  Biso   1.000  C
  H73      1.0000 0.84690  0.14410  0.33920  Biso   1.000  H
  C110     1.0000 0.82680  0.04040  0.29840  Biso   1.000  C
  H74      1.0000 0.80320  0.06850  0.28330  Biso   1.000  H
  C111     1.0000 0.83560  0.95430  0.28720  Biso   1.000  C
  C112     1.0000 0.87040  0.91680  0.31040  Biso   1.000  C
  H75      1.0000 0.87740  0.85770  0.30410  Biso   1.000  H
  C113     1.0000 0.89490  0.96660  0.34280  Biso   1.000  C
  H76      1.0000 0.91920  0.94130  0.35770  Biso   1.000  H
  C114     1.0000 0.80940  0.90310  0.25150  Biso   1.000  C
  C115     1.0000 0.75620  0.89550  0.19630  Biso   1.000  C
  C116     1.0000 0.79280  0.77290  0.21650  Biso   1.000  C
  C117     1.0000 0.67030  0.94720  0.10270  Biso   1.000  C
  H77      1.0000 0.65430  0.91790  0.07780  Biso   1.000  H
  C118     1.0000 0.69880  0.89920  0.12950  Biso   1.000  C
  H78      1.0000 0.70250  0.83800  0.12350  Biso   1.000  H
  C119     1.0000 0.72280  0.94080  0.16620  Biso   1.000  C
  C120     1.0000 0.71510  0.03010  0.17360  Biso   1.000  C
  H79      1.0000 0.73010  0.06130  0.19850  Biso   1.000  H
  C121     1.0000 0.68460  0.07260  0.14360  Biso   1.000  C
  H80      1.0000 0.67920  0.13340  0.14870  Biso   1.000  H
  C122     1.0000 0.83480  0.54420  0.24160  Biso   1.000  C
  H81      1.0000 0.85610  0.51750  0.26210  Biso   1.000  H
  C123     1.0000 0.83060  0.63640  0.24230  Biso   1.000  C
  H82      1.0000 0.84910  0.67200  0.26220  Biso   1.000  H
  C124     1.0000 0.79900  0.67530  0.21360  Biso   1.000  C
  C125     1.0000 0.77290  0.62050  0.18480  Biso   1.000  C
  H83      1.0000 0.75090  0.64450  0.16430  Biso   1.000  H
  C126     1.0000 0.78010  0.52910  0.18710  Biso   1.000  C
  H84      1.0000 0.76190  0.49130  0.16810  Biso   1.000  H
  C127     1.0000 0.84510  0.27990  0.13790  Biso   1.000  C
  H85      1.0000 0.82050  0.25020  0.13300  Biso   1.000  H
  C128     1.0000 0.86990  0.26220  0.10980  Biso   1.000  C
  H86      1.0000 0.86290  0.21910  0.08670  Biso   1.000  H
  C129     1.0000 0.90520  0.30800  0.11540  Biso   1.000  C
  C130     1.0000 0.91460  0.36670  0.15110  Biso   1.000  C
  H87      1.0000 0.93890  0.39800  0.15680  Biso   1.000  H
  C131     1.0000 0.88920  0.37870  0.17720  Biso   1.000  C
  H88      1.0000 0.89610  0.41950  0.20130  Biso   1.000  H
  C132     1.0000 0.93190  0.29340  0.08450  Biso   1.000  C
  C133     1.0000 0.95050  0.21330  0.03100  Biso   1.000  C
  C134     1.0000 0.98160  0.34160  0.05530  Biso   1.000  C
  C135     1.0000 0.05370  0.52830  0.08700  Biso   1.000  C
  H89      1.0000 0.06010  0.57300  0.10940  Biso   1.000  H
  C136     1.0000 0.02380  0.46910  0.08880  Biso   1.000  C
  H90      1.0000 0.01100  0.47040  0.11290  Biso   1.000  H
  C137     1.0000 0.01290  0.40700  0.05420  Biso   1.000  C
  C138     1.0000 0.03210  0.40890  0.01970  Biso   1.000  C
  H91      1.0000 0.02450  0.36940  0.99520  Biso   1.000  H
  C139     1.0000 0.06230  0.46880  0.02100  Biso   1.000  C
  H92      1.0000 0.07520  0.46990  0.99690  Biso   1.000  H
  C140     1.0000 0.91430  0.00050  0.97340  Biso   1.000  C
  H93      1.0000 0.89350  0.95930  0.97260  Biso   1.000  H
  C141     1.0000 0.91740  0.07370  0.00090  Biso   1.000  C
  H94      1.0000 0.89870  0.08280  0.01860  Biso   1.000  H
  C142     1.0000 0.94720  0.13290  0.00270  Biso   1.000  C
  C143     1.0000 0.97470  0.11700  0.97710  Biso   1.000  C
  H95      1.0000 0.99620  0.15620  0.97820  Biso   1.000  H
  C144     1.0000 0.96970  0.04340  0.95020  Biso   1.000  C
  H96      1.0000 0.98840  0.03260  0.93260  Biso   1.000  H
  N37      1.0000 0.88600  0.04780  0.35390  Biso   1.000  N
  N38      1.0000 0.77830  0.94450  0.22760  Biso   1.000  N
  N39      1.0000 0.76120  0.80920  0.18880  Biso   1.000  N
  N40      1.0000 0.81870  0.81700  0.24690  Biso   1.000  N
  N41      1.0000 0.66330  0.03240  0.10890  Biso   1.000  N
  N42      1.0000 0.81040  0.49160  0.21360  Biso   1.000  N
  N43      1.0000 0.85450  0.33700  0.17150  Biso   1.000  N
  N44      1.0000 0.95960  0.35540  0.08520  Biso   1.000  N
  N45      1.0000 0.92570  0.22190  0.05830  Biso   1.000  N
  N46      1.0000 0.97800  0.27290  0.02730  Biso   1.000  N
  N47      1.0000 0.07390  0.52480  0.05450  Biso   1.000  N
  N48      1.0000 0.94010  0.98580  0.94740  Biso   1.000  N
  Zn19     1.0000 0.81520  0.35330  0.21270  Biso   1.000  Zn
  I37      1.0000 0.74911  0.27970  0.18216  Biso   1.000  I
  I38      1.0000 0.85704  0.31290  0.28856  Biso   1.000  I
  Zn20     1.0000 0.12460  0.60060  0.05930  Biso   1.000  Zn
  I39      1.0000 0.11381  0.74778  0.09602  Biso   1.000  I
  I40      1.0000 0.14923  0.58050  0.98833  Biso   1.000  I
  Zn21     1.0000 0.92905  0.88459  0.89990  Biso   1.000  Zn
  I41      1.0000 0.89564  0.76098  0.93378  Biso   1.000  I
  I42      1.0000 0.98766  0.86877  0.86464  Biso   1.000  I
  Zn22     1.0000 0.82670  0.35680  0.22230  Biso   1.000  Zn
  I43      1.0000 0.76206  0.27130  0.19690  Biso   1.000  I
  I44      1.0000 0.87262  0.32980  0.29693  Biso   1.000  I
  Zn23     1.0000 0.12150  0.61020  0.06590  Biso   1.000  Zn
  I45      1.0000 0.10310  0.74940  0.10330  Biso   1.000  I
  I46      1.0000 0.14870  0.60940  0.99720  Biso   1.000  I
  Zn24     1.0000 0.91750  0.87970  0.90590  Biso   1.000  Zn
  I47      1.0000 0.87820  0.76740  0.93810  Biso   1.000  I
  I48      1.0000 0.97380  0.84420  0.86950  Biso   1.000  I
  C145     1.0000 0.64710  0.41500  0.66820  Biso   1.000  C
  H97      1.0000 0.65310  0.35590  0.66080  Biso   1.000  H
  C146     1.0000 0.67320  0.45960  0.70160  Biso   1.000  C
  H98      1.0000 0.69680  0.43150  0.71670  Biso   1.000  H
  C147     1.0000 0.66440  0.54570  0.71280  Biso   1.000  C
  C148     1.0000 0.62960  0.58320  0.68960  Biso   1.000  C
  H99      1.0000 0.62260  0.64230  0.69590  Biso   1.000  H
  C149     1.0000 0.60510  0.53340  0.65720  Biso   1.000  C
  H100     1.0000 0.58080  0.55870  0.64230  Biso   1.000  H
  C150     1.0000 0.69060  0.59690  0.74850  Biso   1.000  C
  C151     1.0000 0.74380  0.60450  0.80370  Biso   1.000  C
  C152     1.0000 0.70720  0.72710  0.78350  Biso   1.000  C
  C153     1.0000 0.82970  0.55280  0.89730  Biso   1.000  C
  H101     1.0000 0.84570  0.58210  0.92220  Biso   1.000  H
  C154     1.0000 0.80120  0.60080  0.87050  Biso   1.000  C
  H102     1.0000 0.79750  0.66200  0.87650  Biso   1.000  H
  C155     1.0000 0.77720  0.55920  0.83380  Biso   1.000  C
  C156     1.0000 0.78490  0.46990  0.82640  Biso   1.000  C
  H103     1.0000 0.76990  0.43870  0.80150  Biso   1.000  H
  C157     1.0000 0.81540  0.42740  0.85640  Biso   1.000  C
  H104     1.0000 0.82080  0.36660  0.85130  Biso   1.000  H
  C158     1.0000 0.66520  0.95580  0.75840  Biso   1.000  C
  H105     1.0000 0.64390  0.98250  0.73790  Biso   1.000  H
  C159     1.0000 0.66940  0.86360  0.75770  Biso   1.000  C
  H106     1.0000 0.65090  0.82800  0.73780  Biso   1.000  H
  C160     1.0000 0.70100  0.82470  0.78640  Biso   1.000  C
  C161     1.0000 0.72710  0.87950  0.81520  Biso   1.000  C
  H107     1.0000 0.74910  0.85550  0.83570  Biso   1.000  H
  C162     1.0000 0.71990  0.97090  0.81290  Biso   1.000  C
  H108     1.0000 0.73810  0.00870  0.83190  Biso   1.000  H
  C163     1.0000 0.65490  0.22010  0.86210  Biso   1.000  C
  H109     1.0000 0.67950  0.24980  0.86700  Biso   1.000  H
  C164     1.0000 0.63010  0.23780  0.89020  Biso   1.000  C
  H110     1.0000 0.63710  0.28090  0.91330  Biso   1.000  H
  C165     1.0000 0.59480  0.19200  0.88460  Biso   1.000  C
  C166     1.0000 0.58540  0.13330  0.84890  Biso   1.000  C
  H111     1.0000 0.56110  0.10200  0.84320  Biso   1.000  H
  C167     1.0000 0.61080  0.12130  0.82280  Biso   1.000  C
  H112     1.0000 0.60390  0.08050  0.79870  Biso   1.000  H
  C168     1.0000 0.56810  0.20660  0.91550  Biso   1.000  C
  C169     1.0000 0.54950  0.28670  0.96900  Biso   1.000  C
  C170     1.0000 0.51840  0.15840  0.94470  Biso   1.000  C
  C171     1.0000 0.44630  0.97170  0.91300  Biso   1.000  C
  H113     1.0000 0.43990  0.92700  0.89060  Biso   1.000  H
  C172     1.0000 0.47620  0.03090  0.91120  Biso   1.000  C
  H114     1.0000 0.48900  0.02960  0.88710  Biso   1.000  H
  C173     1.0000 0.48710  0.09300  0.94580  Biso   1.000  C
  C174     1.0000 0.46790  0.09110  0.98030  Biso   1.000  C
  H115     1.0000 0.47550  0.13060  0.00480  Biso   1.000  H
  C175     1.0000 0.43770  0.03120  0.97900  Biso   1.000  C
  H116     1.0000 0.42480  0.03010  0.00310  Biso   1.000  H
  C176     1.0000 0.58570  0.49950  0.02660  Biso   1.000  C
  H117     1.0000 0.60650  0.54070  0.02740  Biso   1.000  H
  C177     1.0000 0.58260  0.42630  0.99910  Biso   1.000  C
  H118     1.0000 0.60130  0.41720  0.98140  Biso   1.000  H
  C178     1.0000 0.55280  0.36710  0.99730  Biso   1.000  C
  C179     1.0000 0.52530  0.38300  0.02290  Biso   1.000  C
  H119     1.0000 0.50380  0.34380  0.02180  Biso   1.000  H
  C180     1.0000 0.53030  0.45660  0.04980  Biso   1.000  C
  H120     1.0000 0.51160  0.46740  0.06740  Biso   1.000  H
  N49      1.0000 0.61400  0.45220  0.64610  Biso   1.000  N
  N50      1.0000 0.72170  0.55550  0.77240  Biso   1.000  N
  N51      1.0000 0.73880  0.69080  0.81120  Biso   1.000  N
  N52      1.0000 0.68130  0.68300  0.75310  Biso   1.000  N
  N53      1.0000 0.83670  0.46760  0.89110  Biso   1.000  N
  N54      1.0000 0.68960  0.00840  0.78640  Biso   1.000  N
  N55      1.0000 0.64550  0.16300  0.82850  Biso   1.000  N
  N56      1.0000 0.54040  0.14460  0.91480  Biso   1.000  N
  N57      1.0000 0.57430  0.27810  0.94170  Biso   1.000  N
  N58      1.0000 0.52200  0.22710  0.97270  Biso   1.000  N
  N59      1.0000 0.42610  0.97520  0.94550  Biso   1.000  N
  N60      1.0000 0.55990  0.51420  0.05260  Biso   1.000  N
  Zn25     1.0000 0.68480  0.14670  0.78730  Biso   1.000  Zn
  I49      1.0000 0.75089  0.22030  0.81784  Biso   1.000  I
  I50      1.0000 0.64296  0.18710  0.71144  Biso   1.000  I
  Zn26     1.0000 0.37540  0.89940  0.94070  Biso   1.000  Zn
  I51      1.0000 0.38619  0.75222  0.90398  Biso   1.000  I
  I52      1.0000 0.35077  0.91950  0.01167  Biso   1.000  I
  Zn27     1.0000 0.57095  0.61541  0.10010  Biso   1.000  Zn
  I53      1.0000 0.60436  0.73902  0.06622  Biso   1.000  I
  I54      1.0000 0.51234  0.63123  0.13536  Biso   1.000  I
  Zn28     1.0000 0.67330  0.14320  0.77770  Biso   1.000  Zn
  I55      1.0000 0.73794  0.22870  0.80310  Biso   1.000  I
  I56      1.0000 0.62738  0.17020  0.70307  Biso   1.000  I
  Zn29     1.0000 0.37850  0.88980  0.93410  Biso   1.000  Zn
  I57      1.0000 0.39690  0.75060  0.89670  Biso   1.000  I
  I58      1.0000 0.35130  0.89060  0.00280  Biso   1.000  I
  Zn30     1.0000 0.58250  0.62030  0.09410  Biso   1.000  Zn
  I59      1.0000 0.62180  0.73260  0.06190  Biso   1.000  I
  I60      1.0000 0.52620  0.65580  0.13050  Biso   1.000  I
  C181     1.0000 0.14710  0.91500  0.66820  Biso   1.000  C
  H121     1.0000 0.15310  0.85590  0.66080  Biso   1.000  H
  C182     1.0000 0.17320  0.95960  0.70160  Biso   1.000  C
  H122     1.0000 0.19680  0.93150  0.71670  Biso   1.000  H
  C183     1.0000 0.16440  0.04570  0.71280  Biso   1.000  C
  C184     1.0000 0.12960  0.08320  0.68960  Biso   1.000  C
  H123     1.0000 0.12260  0.14230  0.69590  Biso   1.000  H
  C185     1.0000 0.10510  0.03340  0.65720  Biso   1.000  C
  H124     1.0000 0.08080  0.05870  0.64230  Biso   1.000  H
  C186     1.0000 0.19060  0.09690  0.74850  Biso   1.000  C
  C187     1.0000 0.24380  0.10450  0.80370  Biso   1.000  C
  C188     1.0000 0.20720  0.22710  0.78350  Biso   1.000  C
  C189     1.0000 0.32970  0.05280  0.89730  Biso   1.000  C
  H125     1.0000 0.34570  0.08210  0.92220  Biso   1.000  H
  C190     1.0000 0.30120  0.10080  0.87050  Biso   1.000  C
  H126     1.0000 0.29750  0.16200  0.87650  Biso   1.000  H
  C191     1.0000 0.27720  0.05920  0.83380  Biso   1.000  C
  C192     1.0000 0.28490  0.96990  0.82640  Biso   1.000  C
  H127     1.0000 0.26990  0.93870  0.80150  Biso   1.000  H
  C193     1.0000 0.31540  0.92740  0.85640  Biso   1.000  C
  H128     1.0000 0.32080  0.86660  0.85130  Biso   1.000  H
  C194     1.0000 0.16520  0.45580  0.75840  Biso   1.000  C
  H129     1.0000 0.14390  0.48250  0.73790  Biso   1.000  H
  C195     1.0000 0.16940  0.36360  0.75770  Biso   1.000  C
  H130     1.0000 0.15090  0.32800  0.73780  Biso   1.000  H
  C196     1.0000 0.20100  0.32470  0.78640  Biso   1.000  C
  C197     1.0000 0.22710  0.37950  0.81520  Biso   1.000  C
  H131     1.0000 0.24910  0.35550  0.83570  Biso   1.000  H
  C198     1.0000 0.21990  0.47090  0.81290  Biso   1.000  C
  H132     1.0000 0.23810  0.50870  0.83190  Biso   1.000  H
  C199     1.0000 0.15490  0.72010  0.86210  Biso   1.000  C
  H133     1.0000 0.17950  0.74980  0.86700  Biso   1.000  H
  C200     1.0000 0.13010  0.73780  0.89020  Biso   1.000  C
  H134     1.0000 0.13710  0.78090  0.91330  Biso   1.000  H
  C201     1.0000 0.09480  0.69200  0.88460  Biso   1.000  C
  C202     1.0000 0.08540  0.63330  0.84890  Biso   1.000  C
  H135     1.0000 0.06110  0.60200  0.84320  Biso   1.000  H
  C203     1.0000 0.11080  0.62130  0.82280  Biso   1.000  C
  H136     1.0000 0.10390  0.58050  0.79870  Biso   1.000  H
  C204     1.0000 0.06810  0.70660  0.91550  Biso   1.000  C
  C205     1.0000 0.04950  0.78670  0.96900  Biso   1.000  C
  C206     1.0000 0.01840  0.65840  0.94470  Biso   1.000  C
  C207     1.0000 0.94630  0.47170  0.91300  Biso   1.000  C
  H137     1.0000 0.93990  0.42700  0.89060  Biso   1.000  H
  C208     1.0000 0.97620  0.53090  0.91120  Biso   1.000  C
  H138     1.0000 0.98900  0.52960  0.88710  Biso   1.000  H
  C209     1.0000 0.98710  0.59300  0.94580  Biso   1.000  C
  C210     1.0000 0.96790  0.59110  0.98030  Biso   1.000  C
  H139     1.0000 0.97550  0.63060  0.00480  Biso   1.000  H
  C211     1.0000 0.93770  0.53120  0.97900  Biso   1.000  C
  H140     1.0000 0.92480  0.53010  0.00310  Biso   1.000  H
  C212     1.0000 0.08570  0.99950  0.02660  Biso   1.000  C
  H141     1.0000 0.10650  0.04070  0.02740  Biso   1.000  H
  C213     1.0000 0.08260  0.92630  0.99910  Biso   1.000  C
  H142     1.0000 0.10130  0.91720  0.98140  Biso   1.000  H
  C214     1.0000 0.05280  0.86710  0.99730  Biso   1.000  C
  C215     1.0000 0.02530  0.88300  0.02290  Biso   1.000  C
  H143     1.0000 0.00380  0.84380  0.02180  Biso   1.000  H
  C216     1.0000 0.03030  0.95660  0.04980  Biso   1.000  C
  H144     1.0000 0.01160  0.96740  0.06740  Biso   1.000  H
  N61      1.0000 0.11400  0.95220  0.64610  Biso   1.000  N
  N62      1.0000 0.22170  0.05550  0.77240  Biso   1.000  N
  N63      1.0000 0.23880  0.19080  0.81120  Biso   1.000  N
  N64      1.0000 0.18130  0.18300  0.75310  Biso   1.000  N
  N65      1.0000 0.33670  0.96760  0.89110  Biso   1.000  N
  N66      1.0000 0.18960  0.50840  0.78640  Biso   1.000  N
  N67      1.0000 0.14550  0.66300  0.82850  Biso   1.000  N
  N68      1.0000 0.04040  0.64460  0.91480  Biso   1.000  N
  N69      1.0000 0.07430  0.77810  0.94170  Biso   1.000  N
  N70      1.0000 0.02200  0.72710  0.97270  Biso   1.000  N
  N71      1.0000 0.92610  0.47520  0.94550  Biso   1.000  N
  N72      1.0000 0.05990  0.01420  0.05260  Biso   1.000  N
  Zn31     1.0000 0.18480  0.64670  0.78730  Biso   1.000  Zn
  I61      1.0000 0.25089  0.72030  0.81784  Biso   1.000  I
  I62      1.0000 0.14296  0.68710  0.71144  Biso   1.000  I
  Zn32     1.0000 0.87540  0.39940  0.94070  Biso   1.000  Zn
  I63      1.0000 0.88619  0.25222  0.90398  Biso   1.000  I
  I64      1.0000 0.85077  0.41950  0.01167  Biso   1.000  I
  Zn33     1.0000 0.07095  0.11541  0.10010  Biso   1.000  Zn
  I65      1.0000 0.10436  0.23902  0.06622  Biso   1.000  I
  I66      1.0000 0.01234  0.13123  0.13536  Biso   1.000  I
  Zn34     1.0000 0.17330  0.64320  0.77770  Biso   1.000  Zn
  I67      1.0000 0.23794  0.72870  0.80310  Biso   1.000  I
  I68      1.0000 0.12738  0.67020  0.70307  Biso   1.000  I
  Zn35     1.0000 0.87850  0.38980  0.93410  Biso   1.000  Zn
  I69      1.0000 0.89690  0.25060  0.89670  Biso   1.000  I
  I70      1.0000 0.85130  0.39060  0.00280  Biso   1.000  I
  Zn36     1.0000 0.08250  0.12030  0.09410  Biso   1.000  Zn
  I71      1.0000 0.12180  0.23260  0.06190  Biso   1.000  I
  I72      1.0000 0.02620  0.15580  0.13050  Biso   1.000  I
  C217     1.0000 0.64710  0.58500  0.16820  Biso   1.000  C
  H145     1.0000 0.65310  0.64410  0.16080  Biso   1.000  H
  C218     1.0000 0.67320  0.54040  0.20160  Biso   1.000  C
  H146     1.0000 0.69680  0.56850  0.21670  Biso   1.000  H
  C219     1.0000 0.66440  0.45430  0.21280  Biso   1.000  C
  C220     1.0000 0.62960  0.41680  0.18960  Biso   1.000  C
  H147     1.0000 0.62260  0.35770  0.19590  Biso   1.000  H
  C221     1.0000 0.60510  0.46660  0.15720  Biso   1.000  C
  H148     1.0000 0.58080  0.44130  0.14230  Biso   1.000  H
  C222     1.0000 0.69060  0.40310  0.24850  Biso   1.000  C
  C223     1.0000 0.74380  0.39550  0.30370  Biso   1.000  C
  C224     1.0000 0.70720  0.27290  0.28350  Biso   1.000  C
  C225     1.0000 0.82970  0.44720  0.39730  Biso   1.000  C
  H149     1.0000 0.84570  0.41790  0.42220  Biso   1.000  H
  C226     1.0000 0.80120  0.39920  0.37050  Biso   1.000  C
  H150     1.0000 0.79750  0.33800  0.37650  Biso   1.000  H
  C227     1.0000 0.77720  0.44080  0.33380  Biso   1.000  C
  C228     1.0000 0.78490  0.53010  0.32640  Biso   1.000  C
  H151     1.0000 0.76990  0.56130  0.30150  Biso   1.000  H
  C229     1.0000 0.81540  0.57260  0.35640  Biso   1.000  C
  H152     1.0000 0.82080  0.63340  0.35130  Biso   1.000  H
  C230     1.0000 0.66520  0.04420  0.25840  Biso   1.000  C
  H153     1.0000 0.64390  0.01750  0.23790  Biso   1.000  H
  C231     1.0000 0.66940  0.13640  0.25770  Biso   1.000  C
  H154     1.0000 0.65090  0.17200  0.23780  Biso   1.000  H
  C232     1.0000 0.70100  0.17530  0.28640  Biso   1.000  C
  C233     1.0000 0.72710  0.12050  0.31520  Biso   1.000  C
  H155     1.0000 0.74910  0.14450  0.33570  Biso   1.000  H
  C234     1.0000 0.71990  0.02910  0.31290  Biso   1.000  C
  H156     1.0000 0.73810  0.99130  0.33190  Biso   1.000  H
  C235     1.0000 0.65490  0.77990  0.36210  Biso   1.000  C
  H157     1.0000 0.67950  0.75020  0.36700  Biso   1.000  H
  C236     1.0000 0.63010  0.76220  0.39020  Biso   1.000  C
  H158     1.0000 0.63710  0.71910  0.41330  Biso   1.000  H
  C237     1.0000 0.59480  0.80800  0.38460  Biso   1.000  C
  C238     1.0000 0.58540  0.86670  0.34890  Biso   1.000  C
  H159     1.0000 0.56110  0.89800  0.34320  Biso   1.000  H
  C239     1.0000 0.61080  0.87870  0.32280  Biso   1.000  C
  H160     1.0000 0.60390  0.91950  0.29870  Biso   1.000  H
  C240     1.0000 0.56810  0.79340  0.41550  Biso   1.000  C
  C241     1.0000 0.54950  0.71330  0.46900  Biso   1.000  C
  C242     1.0000 0.51840  0.84160  0.44470  Biso   1.000  C
  C243     1.0000 0.44630  0.02830  0.41300  Biso   1.000  C
  H161     1.0000 0.43990  0.07300  0.39060  Biso   1.000  H
  C244     1.0000 0.47620  0.96910  0.41120  Biso   1.000  C
  H162     1.0000 0.48900  0.97040  0.38710  Biso   1.000  H
  C245     1.0000 0.48710  0.90700  0.44580  Biso   1.000  C
  C246     1.0000 0.46790  0.90890  0.48030  Biso   1.000  C
  H163     1.0000 0.47550  0.86940  0.50480  Biso   1.000  H
  C247     1.0000 0.43770  0.96880  0.47900  Biso   1.000  C
  H164     1.0000 0.42480  0.96990  0.50310  Biso   1.000  H
  C248     1.0000 0.58570  0.50050  0.52660  Biso   1.000  C
  H165     1.0000 0.60650  0.45930  0.52740  Biso   1.000  H
  C249     1.0000 0.58260  0.57370  0.49910  Biso   1.000  C
  H166     1.0000 0.60130  0.58280  0.48140  Biso   1.000  H
  C250     1.0000 0.55280  0.63290  0.49730  Biso   1.000  C
  C251     1.0000 0.52530  0.61700  0.52290  Biso   1.000  C
  H167     1.0000 0.50380  0.65620  0.52180  Biso   1.000  H
  C252     1.0000 0.53030  0.54340  0.54980  Biso   1.000  C
  H168     1.0000 0.51160  0.53260  0.56740  Biso   1.000  H
  N73      1.0000 0.61400  0.54780  0.14610  Biso   1.000  N
  N74      1.0000 0.72170  0.44450  0.27240  Biso   1.000  N
  N75      1.0000 0.73880  0.30920  0.31120  Biso   1.000  N
  N76      1.0000 0.68130  0.31700  0.25310  Biso   1.000  N
  N77      1.0000 0.83670  0.53240  0.39110  Biso   1.000  N
  N78      1.0000 0.68960  0.99160  0.28640  Biso   1.000  N
  N79      1.0000 0.64550  0.83700  0.32850  Biso   1.000  N
  N80      1.0000 0.54040  0.85540  0.41480  Biso   1.000  N
  N81      1.0000 0.57430  0.72190  0.44170  Biso   1.000  N
  N82      1.0000 0.52200  0.77290  0.47270  Biso   1.000  N
  N83      1.0000 0.42610  0.02480  0.44550  Biso   1.000  N
  N84      1.0000 0.55990  0.48580  0.55260  Biso   1.000  N
  Zn37     1.0000 0.68480  0.85330  0.28730  Biso   1.000  Zn
  I73      1.0000 0.75089  0.77970  0.31784  Biso   1.000  I
  I74      1.0000 0.64296  0.81290  0.21144  Biso   1.000  I
  Zn38     1.0000 0.37540  0.10060  0.44070  Biso   1.000  Zn
  I75      1.0000 0.38619  0.24778  0.40398  Biso   1.000  I
  I76      1.0000 0.35077  0.08050  0.51167  Biso   1.000  I
  Zn39     1.0000 0.57095  0.38459  0.60010  Biso   1.000  Zn
  I77      1.0000 0.60436  0.26098  0.56622  Biso   1.000  I
  I78      1.0000 0.51234  0.36877  0.63536  Biso   1.000  I
  Zn40     1.0000 0.67330  0.85680  0.27770  Biso   1.000  Zn
  I79      1.0000 0.73794  0.77130  0.30310  Biso   1.000  I
  I80      1.0000 0.62738  0.82980  0.20307  Biso   1.000  I
  Zn41     1.0000 0.37850  0.11020  0.43410  Biso   1.000  Zn
  I81      1.0000 0.39690  0.24940  0.39670  Biso   1.000  I
  I82      1.0000 0.35130  0.10940  0.50280  Biso   1.000  I
  Zn42     1.0000 0.58250  0.37970  0.59410  Biso   1.000  Zn
  I83      1.0000 0.62180  0.26740  0.56190  Biso   1.000  I
  I84      1.0000 0.52620  0.34420  0.63050  Biso   1.000  I
  C253     1.0000 0.14710  0.08500  0.16820  Biso   1.000  C
  H169     1.0000 0.15310  0.14410  0.16080  Biso   1.000  H
  C254     1.0000 0.17320  0.04040  0.20160  Biso   1.000  C
  H170     1.0000 0.19680  0.06850  0.21670  Biso   1.000  H
  C255     1.0000 0.16440  0.95430  0.21280  Biso   1.000  C
  C256     1.0000 0.12960  0.91680  0.18960  Biso   1.000  C
  H171     1.0000 0.12260  0.85770  0.19590  Biso   1.000  H
  C257     1.0000 0.10510  0.96660  0.15720  Biso   1.000  C
  H172     1.0000 0.08080  0.94130  0.14230  Biso   1.000  H
  C258     1.0000 0.19060  0.90310  0.24850  Biso   1.000  C
  C259     1.0000 0.24380  0.89550  0.30370  Biso   1.000  C
  C260     1.0000 0.20720  0.77290  0.28350  Biso   1.000  C
  C261     1.0000 0.32970  0.94720  0.39730  Biso   1.000  C
  H173     1.0000 0.34570  0.91790  0.42220  Biso   1.000  H
  C262     1.0000 0.30120  0.89920  0.37050  Biso   1.000  C
  H174     1.0000 0.29750  0.83800  0.37650  Biso   1.000  H
  C263     1.0000 0.27720  0.94080  0.33380  Biso   1.000  C
  C264     1.0000 0.28490  0.03010  0.32640  Biso   1.000  C
  H175     1.0000 0.26990  0.06130  0.30150  Biso   1.000  H
  C265     1.0000 0.31540  0.07260  0.35640  Biso   1.000  C
  H176     1.0000 0.32080  0.13340  0.35130  Biso   1.000  H
  C266     1.0000 0.16520  0.54420  0.25840  Biso   1.000  C
  H177     1.0000 0.14390  0.51750  0.23790  Biso   1.000  H
  C267     1.0000 0.16940  0.63640  0.25770  Biso   1.000  C
  H178     1.0000 0.15090  0.67200  0.23780  Biso   1.000  H
  C268     1.0000 0.20100  0.67530  0.28640  Biso   1.000  C
  C269     1.0000 0.22710  0.62050  0.31520  Biso   1.000  C
  H179     1.0000 0.24910  0.64450  0.33570  Biso   1.000  H
  C270     1.0000 0.21990  0.52910  0.31290  Biso   1.000  C
  H180     1.0000 0.23810  0.49130  0.33190  Biso   1.000  H
  C271     1.0000 0.15490  0.27990  0.36210  Biso   1.000  C
  H181     1.0000 0.17950  0.25020  0.36700  Biso   1.000  H
  C272     1.0000 0.13010  0.26220  0.39020  Biso   1.000  C
  H182     1.0000 0.13710  0.21910  0.41330  Biso   1.000  H
  C273     1.0000 0.09480  0.30800  0.38460  Biso   1.000  C
  C274     1.0000 0.08540  0.36670  0.34890  Biso   1.000  C
  H183     1.0000 0.06110  0.39800  0.34320  Biso   1.000  H
  C275     1.0000 0.11080  0.37870  0.32280  Biso   1.000  C
  H184     1.0000 0.10390  0.41950  0.29870  Biso   1.000  H
  C276     1.0000 0.06810  0.29340  0.41550  Biso   1.000  C
  C277     1.0000 0.04950  0.21330  0.46900  Biso   1.000  C
  C278     1.0000 0.01840  0.34160  0.44470  Biso   1.000  C
  C279     1.0000 0.94630  0.52830  0.41300  Biso   1.000  C
  H185     1.0000 0.93990  0.57300  0.39060  Biso   1.000  H
  C280     1.0000 0.97620  0.46910  0.41120  Biso   1.000  C
  H186     1.0000 0.98900  0.47040  0.38710  Biso   1.000  H
  C281     1.0000 0.98710  0.40700  0.44580  Biso   1.000  C
  C282     1.0000 0.96790  0.40890  0.48030  Biso   1.000  C
  H187     1.0000 0.97550  0.36940  0.50480  Biso   1.000  H
  C283     1.0000 0.93770  0.46880  0.47900  Biso   1.000  C
  H188     1.0000 0.92480  0.46990  0.50310  Biso   1.000  H
  C284     1.0000 0.08570  0.00050  0.52660  Biso   1.000  C
  H189     1.0000 0.10650  0.95930  0.52740  Biso   1.000  H
  C285     1.0000 0.08260  0.07370  0.49910  Biso   1.000  C
  H190     1.0000 0.10130  0.08280  0.48140  Biso   1.000  H
  C286     1.0000 0.05280  0.13290  0.49730  Biso   1.000  C
  C287     1.0000 0.02530  0.11700  0.52290  Biso   1.000  C
  H191     1.0000 0.00380  0.15620  0.52180  Biso   1.000  H
  C288     1.0000 0.03030  0.04340  0.54980  Biso   1.000  C
  H192     1.0000 0.01160  0.03260  0.56740  Biso   1.000  H
  N85      1.0000 0.11400  0.04780  0.14610  Biso   1.000  N
  N86      1.0000 0.22170  0.94450  0.27240  Biso   1.000  N
  N87      1.0000 0.23880  0.80920  0.31120  Biso   1.000  N
  N88      1.0000 0.18130  0.81700  0.25310  Biso   1.000  N
  N89      1.0000 0.33670  0.03240  0.39110  Biso   1.000  N
  N90      1.0000 0.18960  0.49160  0.28640  Biso   1.000  N
  N91      1.0000 0.14550  0.33700  0.32850  Biso   1.000  N
  N92      1.0000 0.04040  0.35540  0.41480  Biso   1.000  N
  N93      1.0000 0.07430  0.22190  0.44170  Biso   1.000  N
  N94      1.0000 0.02200  0.27290  0.47270  Biso   1.000  N
  N95      1.0000 0.92610  0.52480  0.44550  Biso   1.000  N
  N96      1.0000 0.05990  0.98580  0.55260  Biso   1.000  N
  Zn43     1.0000 0.18480  0.35330  0.28730  Biso   1.000  Zn
  I85      1.0000 0.25089  0.27970  0.31784  Biso   1.000  I
  I86      1.0000 0.14296  0.31290  0.21144  Biso   1.000  I
  Zn44     1.0000 0.87540  0.60060  0.44070  Biso   1.000  Zn
  I87      1.0000 0.88619  0.74778  0.40398  Biso   1.000  I
  I88      1.0000 0.85077  0.58050  0.51167  Biso   1.000  I
  Zn45     1.0000 0.07095  0.88459  0.60010  Biso   1.000  Zn
  I89      1.0000 0.10436  0.76098  0.56622  Biso   1.000  I
  I90      1.0000 0.01234  0.86877  0.63536  Biso   1.000  I
  Zn46     1.0000 0.17330  0.35680  0.27770  Biso   1.000  Zn
  I91      1.0000 0.23794  0.27130  0.30310  Biso   1.000  I
  I92      1.0000 0.12738  0.32980  0.20307  Biso   1.000  I
  Zn47     1.0000 0.87850  0.61020  0.43410  Biso   1.000  Zn
  I93      1.0000 0.89690  0.74940  0.39670  Biso   1.000  I
  I94      1.0000 0.85130  0.60940  0.50280  Biso   1.000  I
  Zn48     1.0000 0.08250  0.87970  0.59410  Biso   1.000  Zn
  I95      1.0000 0.12180  0.76740  0.56190  Biso   1.000  I
  I96      1.0000 0.02620  0.84420  0.63050  Biso   1.000  I
