data_image0
_cell_length_a       19.869
_cell_length_b       28.259
_cell_length_c       48.027
_cell_angle_alpha    90
_cell_angle_beta     90
_cell_angle_gamma    90

_symmetry_space_group_name_H-M    "P 1"
_symmetry_int_tables_number       1

loop_
  _symmetry_equiv_pos_as_xyz
  'x, y, z'

loop_
  _atom_site_label
  _atom_site_occupancy
  _atom_site_fract_x
  _atom_site_fract_y
  _atom_site_fract_z
  _atom_site_thermal_displace_type
  _atom_site_B_iso_or_equiv
  _atom_site_type_symbol
  C1       1.0000 0.62490  0.95840  0.28792  Biso   1.000  C
  H1       1.0000 0.62600  0.94370  0.30520  Biso   1.000  H
  N1       1.0000 0.62340  0.93670  0.26322  Biso   1.000  N
  C2       1.0000 0.62200  0.96990  0.24345  Biso   1.000  C
  H2       1.0000 0.62080  0.96460  0.22430  Biso   1.000  H
  N2       1.0000 0.62260  0.01220  0.25590  Biso   1.000  N
  N3       1.0000 0.62440  0.00510  0.28340  Biso   1.000  N
  N4       1.0000 0.79440  0.89660  0.20130  Biso   1.000  N
  N5       1.0000 0.80060  0.84950  0.20340  Biso   1.000  N
  C3       1.0000 0.74710  0.83310  0.21750  Biso   1.000  C
  H3       1.0000 0.73860  0.80160  0.22190  Biso   1.000  H
  N6       1.0000 0.70790  0.87020  0.22400  Biso   1.000  N
  C4       1.0000 0.73720  0.90940  0.21400  Biso   1.000  C
  H4       1.0000 0.72070  0.94010  0.21560  Biso   1.000  H
  N7       1.0000 0.79490  0.89720  0.05140  Biso   1.000  N
  N8       1.0000 0.80020  0.84960  0.04980  Biso   1.000  N
  C5       1.0000 0.74670  0.83330  0.03550  Biso   1.000  C
  H5       1.0000 0.73780  0.80170  0.03130  Biso   1.000  H
  N9       1.0000 0.70830  0.87070  0.02820  Biso   1.000  N
  C6       1.0000 0.73810  0.91020  0.03800  Biso   1.000  C
  H6       1.0000 0.72230  0.94100  0.03600  Biso   1.000  H
  N10      1.0000 0.88220  0.95220  0.15030  Biso   1.000  N
  C7       1.0000 0.85050  0.93360  0.12770  Biso   1.000  C
  H7       1.0000 0.81410  0.91290  0.12800  Biso   1.000  H
  N11      1.0000 0.88130  0.95060  0.10440  Biso   1.000  N
  C8       1.0000 0.93220  0.97960  0.11270  Biso   1.000  C
  H8       1.0000 0.96140  0.99600  0.10100  Biso   1.000  H
  N12      1.0000 0.93270  0.98060  0.14100  Biso   1.000  N
  Zn1      1.0000 0.86915  0.94025  0.06422  Biso   1.000  Zn
  Zn2      1.0000 0.86849  0.94104  0.18972  Biso   1.000  Zn
  Zn3      1.0000 0.62236  0.87174  0.24758  Biso   1.000  Zn
  C9       1.0000 0.85740  0.02970  0.02880  Biso   1.000  C
  H9       1.0000 0.81620  0.02140  0.02100  Biso   1.000  H
  N13      1.0000 0.89220  0.00420  0.04670  Biso   1.000  N
  N14      1.0000 0.94750  0.02770  0.05290  Biso   1.000  N
  C10      1.0000 0.94690  0.06780  0.03880  Biso   1.000  C
  H10      1.0000 0.97990  0.09110  0.03920  Biso   1.000  H
  N15      1.0000 0.89120  0.06900  0.02390  Biso   1.000  N
  N16      1.0000 0.89080  0.94380  0.14940  Biso   1.000  N
  C11      1.0000 0.85150  0.94420  0.12670  Biso   1.000  C
  H11      1.0000 0.80470  0.94510  0.12660  Biso   1.000  H
  N17      1.0000 0.89150  0.94300  0.10420  Biso   1.000  N
  C12      1.0000 0.95550  0.94190  0.11300  Biso   1.000  C
  H12      1.0000 0.99350  0.94100  0.10170  Biso   1.000  H
  N18      1.0000 0.95510  0.94240  0.14090  Biso   1.000  N
  C13      1.0000 0.87570  0.02210  0.99520  Biso   1.000  C
  H13      1.0000 0.87620  0.02600  0.97600  Biso   1.000  H
  N19      1.0000 0.87450  0.98020  0.00890  Biso   1.000  N
  N20      1.0000 0.87420  0.98950  0.03660  Biso   1.000  N
  C14      1.0000 0.87530  0.03710  0.04000  Biso   1.000  C
  H14      1.0000 0.87540  0.05310  0.05690  Biso   1.000  H
  N21      1.0000 0.87630  0.05720  0.01440  Biso   1.000  N
  C15      1.0000 0.62490  0.45840  0.78792  Biso   1.000  C
  H15      1.0000 0.62600  0.44370  0.80520  Biso   1.000  H
  N22      1.0000 0.62340  0.43670  0.76322  Biso   1.000  N
  C16      1.0000 0.62200  0.46990  0.74345  Biso   1.000  C
  H16      1.0000 0.62080  0.46460  0.72430  Biso   1.000  H
  N23      1.0000 0.62260  0.51220  0.75590  Biso   1.000  N
  N24      1.0000 0.62440  0.50510  0.78340  Biso   1.000  N
  N25      1.0000 0.79440  0.39660  0.70130  Biso   1.000  N
  N26      1.0000 0.80060  0.34950  0.70340  Biso   1.000  N
  C17      1.0000 0.74710  0.33310  0.71750  Biso   1.000  C
  H17      1.0000 0.73860  0.30160  0.72190  Biso   1.000  H
  N27      1.0000 0.70790  0.37020  0.72400  Biso   1.000  N
  C18      1.0000 0.73720  0.40940  0.71400  Biso   1.000  C
  H18      1.0000 0.72070  0.44010  0.71560  Biso   1.000  H
  N28      1.0000 0.79490  0.39720  0.55140  Biso   1.000  N
  N29      1.0000 0.80020  0.34960  0.54980  Biso   1.000  N
  C19      1.0000 0.74670  0.33330  0.53550  Biso   1.000  C
  H19      1.0000 0.73780  0.30170  0.53130  Biso   1.000  H
  N30      1.0000 0.70830  0.37070  0.52820  Biso   1.000  N
  C20      1.0000 0.73810  0.41020  0.53800  Biso   1.000  C
  H20      1.0000 0.72230  0.44100  0.53600  Biso   1.000  H
  N31      1.0000 0.88220  0.45220  0.65030  Biso   1.000  N
  C21      1.0000 0.85050  0.43360  0.62770  Biso   1.000  C
  H21      1.0000 0.81410  0.41290  0.62800  Biso   1.000  H
  N32      1.0000 0.88130  0.45060  0.60440  Biso   1.000  N
  C22      1.0000 0.93220  0.47960  0.61270  Biso   1.000  C
  H22      1.0000 0.96140  0.49600  0.60100  Biso   1.000  H
  N33      1.0000 0.93270  0.48060  0.64100  Biso   1.000  N
  Zn4      1.0000 0.86915  0.44025  0.56422  Biso   1.000  Zn
  Zn5      1.0000 0.86849  0.44104  0.68972  Biso   1.000  Zn
  Zn6      1.0000 0.62236  0.37174  0.74758  Biso   1.000  Zn
  C23      1.0000 0.85740  0.52970  0.52880  Biso   1.000  C
  H23      1.0000 0.81620  0.52140  0.52100  Biso   1.000  H
  N34      1.0000 0.89220  0.50420  0.54670  Biso   1.000  N
  N35      1.0000 0.94750  0.52770  0.55290  Biso   1.000  N
  C24      1.0000 0.94690  0.56780  0.53880  Biso   1.000  C
  H24      1.0000 0.97990  0.59110  0.53920  Biso   1.000  H
  N36      1.0000 0.89120  0.56900  0.52390  Biso   1.000  N
  N37      1.0000 0.89080  0.44380  0.64940  Biso   1.000  N
  C25      1.0000 0.85150  0.44420  0.62670  Biso   1.000  C
  H25      1.0000 0.80470  0.44510  0.62660  Biso   1.000  H
  N38      1.0000 0.89150  0.44300  0.60420  Biso   1.000  N
  C26      1.0000 0.95550  0.44190  0.61300  Biso   1.000  C
  H26      1.0000 0.99350  0.44100  0.60170  Biso   1.000  H
  N39      1.0000 0.95510  0.44240  0.64090  Biso   1.000  N
  C27      1.0000 0.87570  0.52210  0.49520  Biso   1.000  C
  H27      1.0000 0.87620  0.52600  0.47600  Biso   1.000  H
  N40      1.0000 0.87450  0.48020  0.50890  Biso   1.000  N
  N41      1.0000 0.87420  0.48950  0.53660  Biso   1.000  N
  C28      1.0000 0.87530  0.53710  0.54000  Biso   1.000  C
  H28      1.0000 0.87540  0.55310  0.55690  Biso   1.000  H
  N42      1.0000 0.87630  0.55720  0.51440  Biso   1.000  N
  C29      1.0000 0.12490  0.95840  0.78792  Biso   1.000  C
  H29      1.0000 0.12600  0.94370  0.80520  Biso   1.000  H
  N43      1.0000 0.12340  0.93670  0.76322  Biso   1.000  N
  C30      1.0000 0.12200  0.96990  0.74345  Biso   1.000  C
  H30      1.0000 0.12080  0.96460  0.72430  Biso   1.000  H
  N44      1.0000 0.12260  0.01220  0.75590  Biso   1.000  N
  N45      1.0000 0.12440  0.00510  0.78340  Biso   1.000  N
  N46      1.0000 0.29440  0.89660  0.70130  Biso   1.000  N
  N47      1.0000 0.30060  0.84950  0.70340  Biso   1.000  N
  C31      1.0000 0.24710  0.83310  0.71750  Biso   1.000  C
  H31      1.0000 0.23860  0.80160  0.72190  Biso   1.000  H
  N48      1.0000 0.20790  0.87020  0.72400  Biso   1.000  N
  C32      1.0000 0.23720  0.90940  0.71400  Biso   1.000  C
  H32      1.0000 0.22070  0.94010  0.71560  Biso   1.000  H
  N49      1.0000 0.29490  0.89720  0.55140  Biso   1.000  N
  N50      1.0000 0.30020  0.84960  0.54980  Biso   1.000  N
  C33      1.0000 0.24670  0.83330  0.53550  Biso   1.000  C
  H33      1.0000 0.23780  0.80170  0.53130  Biso   1.000  H
  N51      1.0000 0.20830  0.87070  0.52820  Biso   1.000  N
  C34      1.0000 0.23810  0.91020  0.53800  Biso   1.000  C
  H34      1.0000 0.22230  0.94100  0.53600  Biso   1.000  H
  N52      1.0000 0.38220  0.95220  0.65030  Biso   1.000  N
  C35      1.0000 0.35050  0.93360  0.62770  Biso   1.000  C
  H35      1.0000 0.31410  0.91290  0.62800  Biso   1.000  H
  N53      1.0000 0.38130  0.95060  0.60440  Biso   1.000  N
  C36      1.0000 0.43220  0.97960  0.61270  Biso   1.000  C
  H36      1.0000 0.46140  0.99600  0.60100  Biso   1.000  H
  N54      1.0000 0.43270  0.98060  0.64100  Biso   1.000  N
  Zn7      1.0000 0.36915  0.94025  0.56422  Biso   1.000  Zn
  Zn8      1.0000 0.36849  0.94104  0.68972  Biso   1.000  Zn
  Zn9      1.0000 0.12236  0.87174  0.74758  Biso   1.000  Zn
  C37      1.0000 0.35740  0.02970  0.52880  Biso   1.000  C
  H37      1.0000 0.31620  0.02140  0.52100  Biso   1.000  H
  N55      1.0000 0.39220  0.00420  0.54670  Biso   1.000  N
  N56      1.0000 0.44750  0.02770  0.55290  Biso   1.000  N
  C38      1.0000 0.44690  0.06780  0.53880  Biso   1.000  C
  H38      1.0000 0.47990  0.09110  0.53920  Biso   1.000  H
  N57      1.0000 0.39120  0.06900  0.52390  Biso   1.000  N
  N58      1.0000 0.39080  0.94380  0.64940  Biso   1.000  N
  C39      1.0000 0.35150  0.94420  0.62670  Biso   1.000  C
  H39      1.0000 0.30470  0.94510  0.62660  Biso   1.000  H
  N59      1.0000 0.39150  0.94300  0.60420  Biso   1.000  N
  C40      1.0000 0.45550  0.94190  0.61300  Biso   1.000  C
  H40      1.0000 0.49350  0.94100  0.60170  Biso   1.000  H
  N60      1.0000 0.45510  0.94240  0.64090  Biso   1.000  N
  C41      1.0000 0.37570  0.02210  0.49520  Biso   1.000  C
  H41      1.0000 0.37620  0.02600  0.47600  Biso   1.000  H
  N61      1.0000 0.37450  0.98020  0.50890  Biso   1.000  N
  N62      1.0000 0.37420  0.98950  0.53660  Biso   1.000  N
  C42      1.0000 0.37530  0.03710  0.54000  Biso   1.000  C
  H42      1.0000 0.37540  0.05310  0.55690  Biso   1.000  H
  N63      1.0000 0.37630  0.05720  0.51440  Biso   1.000  N
  C43      1.0000 0.12490  0.45840  0.28792  Biso   1.000  C
  H43      1.0000 0.12600  0.44370  0.30520  Biso   1.000  H
  N64      1.0000 0.12340  0.43670  0.26322  Biso   1.000  N
  C44      1.0000 0.12200  0.46990  0.24345  Biso   1.000  C
  H44      1.0000 0.12080  0.46460  0.22430  Biso   1.000  H
  N65      1.0000 0.12260  0.51220  0.25590  Biso   1.000  N
  N66      1.0000 0.12440  0.50510  0.28340  Biso   1.000  N
  N67      1.0000 0.29440  0.39660  0.20130  Biso   1.000  N
  N68      1.0000 0.30060  0.34950  0.20340  Biso   1.000  N
  C45      1.0000 0.24710  0.33310  0.21750  Biso   1.000  C
  H45      1.0000 0.23860  0.30160  0.22190  Biso   1.000  H
  N69      1.0000 0.20790  0.37020  0.22400  Biso   1.000  N
  C46      1.0000 0.23720  0.40940  0.21400  Biso   1.000  C
  H46      1.0000 0.22070  0.44010  0.21560  Biso   1.000  H
  N70      1.0000 0.29490  0.39720  0.05140  Biso   1.000  N
  N71      1.0000 0.30020  0.34960  0.04980  Biso   1.000  N
  C47      1.0000 0.24670  0.33330  0.03550  Biso   1.000  C
  H47      1.0000 0.23780  0.30170  0.03130  Biso   1.000  H
  N72      1.0000 0.20830  0.37070  0.02820  Biso   1.000  N
  C48      1.0000 0.23810  0.41020  0.03800  Biso   1.000  C
  H48      1.0000 0.22230  0.44100  0.03600  Biso   1.000  H
  N73      1.0000 0.38220  0.45220  0.15030  Biso   1.000  N
  C49      1.0000 0.35050  0.43360  0.12770  Biso   1.000  C
  H49      1.0000 0.31410  0.41290  0.12800  Biso   1.000  H
  N74      1.0000 0.38130  0.45060  0.10440  Biso   1.000  N
  C50      1.0000 0.43220  0.47960  0.11270  Biso   1.000  C
  H50      1.0000 0.46140  0.49600  0.10100  Biso   1.000  H
  N75      1.0000 0.43270  0.48060  0.14100  Biso   1.000  N
  Zn10     1.0000 0.36915  0.44025  0.06422  Biso   1.000  Zn
  Zn11     1.0000 0.36849  0.44104  0.18972  Biso   1.000  Zn
  Zn12     1.0000 0.12236  0.37174  0.24758  Biso   1.000  Zn
  C51      1.0000 0.35740  0.52970  0.02880  Biso   1.000  C
  H51      1.0000 0.31620  0.52140  0.02100  Biso   1.000  H
  N76      1.0000 0.39220  0.50420  0.04670  Biso   1.000  N
  N77      1.0000 0.44750  0.52770  0.05290  Biso   1.000  N
  C52      1.0000 0.44690  0.56780  0.03880  Biso   1.000  C
  H52      1.0000 0.47990  0.59110  0.03920  Biso   1.000  H
  N78      1.0000 0.39120  0.56900  0.02390  Biso   1.000  N
  N79      1.0000 0.39080  0.44380  0.14940  Biso   1.000  N
  C53      1.0000 0.35150  0.44420  0.12670  Biso   1.000  C
  H53      1.0000 0.30470  0.44510  0.12660  Biso   1.000  H
  N80      1.0000 0.39150  0.44300  0.10420  Biso   1.000  N
  C54      1.0000 0.45550  0.44190  0.11300  Biso   1.000  C
  H54      1.0000 0.49350  0.44100  0.10170  Biso   1.000  H
  N81      1.0000 0.45510  0.44240  0.14090  Biso   1.000  N
  C55      1.0000 0.37570  0.52210  0.99520  Biso   1.000  C
  H55      1.0000 0.37620  0.52600  0.97600  Biso   1.000  H
  N82      1.0000 0.37450  0.48020  0.00890  Biso   1.000  N
  N83      1.0000 0.37420  0.48950  0.03660  Biso   1.000  N
  C56      1.0000 0.37530  0.53710  0.04000  Biso   1.000  C
  H56      1.0000 0.37540  0.55310  0.05690  Biso   1.000  H
  N84      1.0000 0.37630  0.55720  0.01440  Biso   1.000  N
  C57      1.0000 0.12510  0.79160  0.28792  Biso   1.000  C
  H57      1.0000 0.12400  0.80630  0.30520  Biso   1.000  H
  N85      1.0000 0.12660  0.81330  0.26322  Biso   1.000  N
  C58      1.0000 0.12800  0.78010  0.24345  Biso   1.000  C
  H58      1.0000 0.12920  0.78540  0.22430  Biso   1.000  H
  N86      1.0000 0.12740  0.73780  0.25590  Biso   1.000  N
  N87      1.0000 0.12560  0.74490  0.28340  Biso   1.000  N
  N88      1.0000 0.95560  0.85340  0.20130  Biso   1.000  N
  N89      1.0000 0.94940  0.90050  0.20340  Biso   1.000  N
  C59      1.0000 0.00290  0.91690  0.21750  Biso   1.000  C
  H59      1.0000 0.01140  0.94840  0.22190  Biso   1.000  H
  N90      1.0000 0.04210  0.87980  0.22400  Biso   1.000  N
  C60      1.0000 0.01280  0.84060  0.21400  Biso   1.000  C
  H60      1.0000 0.02930  0.80990  0.21560  Biso   1.000  H
  N91      1.0000 0.95510  0.85280  0.05140  Biso   1.000  N
  N92      1.0000 0.94980  0.90040  0.04980  Biso   1.000  N
  C61      1.0000 0.00330  0.91670  0.03550  Biso   1.000  C
  H61      1.0000 0.01220  0.94830  0.03130  Biso   1.000  H
  N93      1.0000 0.04170  0.87930  0.02820  Biso   1.000  N
  C62      1.0000 0.01190  0.83980  0.03800  Biso   1.000  C
  H62      1.0000 0.02770  0.80900  0.03600  Biso   1.000  H
  N94      1.0000 0.86780  0.79780  0.15030  Biso   1.000  N
  C63      1.0000 0.89950  0.81640  0.12770  Biso   1.000  C
  H63      1.0000 0.93590  0.83710  0.12800  Biso   1.000  H
  N95      1.0000 0.86870  0.79940  0.10440  Biso   1.000  N
  C64      1.0000 0.81780  0.77040  0.11270  Biso   1.000  C
  H64      1.0000 0.78860  0.75400  0.10100  Biso   1.000  H
  N96      1.0000 0.81730  0.76940  0.14100  Biso   1.000  N
  Zn13     1.0000 0.88085  0.80975  0.06422  Biso   1.000  Zn
  Zn14     1.0000 0.88151  0.80896  0.18972  Biso   1.000  Zn
  Zn15     1.0000 0.12764  0.87826  0.24758  Biso   1.000  Zn
  C65      1.0000 0.89260  0.72030  0.02880  Biso   1.000  C
  H65      1.0000 0.93380  0.72860  0.02100  Biso   1.000  H
  N97      1.0000 0.85780  0.74580  0.04670  Biso   1.000  N
  N98      1.0000 0.80250  0.72230  0.05290  Biso   1.000  N
  C66      1.0000 0.80310  0.68220  0.03880  Biso   1.000  C
  H66      1.0000 0.77010  0.65890  0.03920  Biso   1.000  H
  N99      1.0000 0.85880  0.68100  0.02390  Biso   1.000  N
  N100     1.0000 0.85920  0.80620  0.14940  Biso   1.000  N
  C67      1.0000 0.89850  0.80580  0.12670  Biso   1.000  C
  H67      1.0000 0.94530  0.80490  0.12660  Biso   1.000  H
  N101     1.0000 0.85850  0.80700  0.10420  Biso   1.000  N
  C68      1.0000 0.79450  0.80810  0.11300  Biso   1.000  C
  H68      1.0000 0.75650  0.80900  0.10170  Biso   1.000  H
  N102     1.0000 0.79490  0.80760  0.14090  Biso   1.000  N
  C69      1.0000 0.87430  0.72790  0.99520  Biso   1.000  C
  H69      1.0000 0.87380  0.72400  0.97600  Biso   1.000  H
  N103     1.0000 0.87550  0.76980  0.00890  Biso   1.000  N
  N104     1.0000 0.87580  0.76050  0.03660  Biso   1.000  N
  C70      1.0000 0.87470  0.71290  0.04000  Biso   1.000  C
  H70      1.0000 0.87460  0.69690  0.05690  Biso   1.000  H
  N105     1.0000 0.87370  0.69280  0.01440  Biso   1.000  N
  C71      1.0000 0.12510  0.29160  0.78792  Biso   1.000  C
  H71      1.0000 0.12400  0.30630  0.80520  Biso   1.000  H
  N106     1.0000 0.12660  0.31330  0.76322  Biso   1.000  N
  C72      1.0000 0.12800  0.28010  0.74345  Biso   1.000  C
  H72      1.0000 0.12920  0.28540  0.72430  Biso   1.000  H
  N107     1.0000 0.12740  0.23780  0.75590  Biso   1.000  N
  N108     1.0000 0.12560  0.24490  0.78340  Biso   1.000  N
  N109     1.0000 0.95560  0.35340  0.70130  Biso   1.000  N
  N110     1.0000 0.94940  0.40050  0.70340  Biso   1.000  N
  C73      1.0000 0.00290  0.41690  0.71750  Biso   1.000  C
  H73      1.0000 0.01140  0.44840  0.72190  Biso   1.000  H
  N111     1.0000 0.04210  0.37980  0.72400  Biso   1.000  N
  C74      1.0000 0.01280  0.34060  0.71400  Biso   1.000  C
  H74      1.0000 0.02930  0.30990  0.71560  Biso   1.000  H
  N112     1.0000 0.95510  0.35280  0.55140  Biso   1.000  N
  N113     1.0000 0.94980  0.40040  0.54980  Biso   1.000  N
  C75      1.0000 0.00330  0.41670  0.53550  Biso   1.000  C
  H75      1.0000 0.01220  0.44830  0.53130  Biso   1.000  H
  N114     1.0000 0.04170  0.37930  0.52820  Biso   1.000  N
  C76      1.0000 0.01190  0.33980  0.53800  Biso   1.000  C
  H76      1.0000 0.02770  0.30900  0.53600  Biso   1.000  H
  N115     1.0000 0.86780  0.29780  0.65030  Biso   1.000  N
  C77      1.0000 0.89950  0.31640  0.62770  Biso   1.000  C
  H77      1.0000 0.93590  0.33710  0.62800  Biso   1.000  H
  N116     1.0000 0.86870  0.29940  0.60440  Biso   1.000  N
  C78      1.0000 0.81780  0.27040  0.61270  Biso   1.000  C
  H78      1.0000 0.78860  0.25400  0.60100  Biso   1.000  H
  N117     1.0000 0.81730  0.26940  0.64100  Biso   1.000  N
  Zn16     1.0000 0.88085  0.30975  0.56422  Biso   1.000  Zn
  Zn17     1.0000 0.88151  0.30896  0.68972  Biso   1.000  Zn
  Zn18     1.0000 0.12764  0.37826  0.74758  Biso   1.000  Zn
  C79      1.0000 0.89260  0.22030  0.52880  Biso   1.000  C
  H79      1.0000 0.93380  0.22860  0.52100  Biso   1.000  H
  N118     1.0000 0.85780  0.24580  0.54670  Biso   1.000  N
  N119     1.0000 0.80250  0.22230  0.55290  Biso   1.000  N
  C80      1.0000 0.80310  0.18220  0.53880  Biso   1.000  C
  H80      1.0000 0.77010  0.15890  0.53920  Biso   1.000  H
  N120     1.0000 0.85880  0.18100  0.52390  Biso   1.000  N
  N121     1.0000 0.85920  0.30620  0.64940  Biso   1.000  N
  C81      1.0000 0.89850  0.30580  0.62670  Biso   1.000  C
  H81      1.0000 0.94530  0.30490  0.62660  Biso   1.000  H
  N122     1.0000 0.85850  0.30700  0.60420  Biso   1.000  N
  C82      1.0000 0.79450  0.30810  0.61300  Biso   1.000  C
  H82      1.0000 0.75650  0.30900  0.60170  Biso   1.000  H
  N123     1.0000 0.79490  0.30760  0.64090  Biso   1.000  N
  C83      1.0000 0.87430  0.22790  0.49520  Biso   1.000  C
  H83      1.0000 0.87380  0.22400  0.47600  Biso   1.000  H
  N124     1.0000 0.87550  0.26980  0.50890  Biso   1.000  N
  N125     1.0000 0.87580  0.26050  0.53660  Biso   1.000  N
  C84      1.0000 0.87470  0.21290  0.54000  Biso   1.000  C
  H84      1.0000 0.87460  0.19690  0.55690  Biso   1.000  H
  N126     1.0000 0.87370  0.19280  0.51440  Biso   1.000  N
  C85      1.0000 0.62510  0.79160  0.78792  Biso   1.000  C
  H85      1.0000 0.62400  0.80630  0.80520  Biso   1.000  H
  N127     1.0000 0.62660  0.81330  0.76322  Biso   1.000  N
  C86      1.0000 0.62800  0.78010  0.74345  Biso   1.000  C
  H86      1.0000 0.62920  0.78540  0.72430  Biso   1.000  H
  N128     1.0000 0.62740  0.73780  0.75590  Biso   1.000  N
  N129     1.0000 0.62560  0.74490  0.78340  Biso   1.000  N
  N130     1.0000 0.45560  0.85340  0.70130  Biso   1.000  N
  N131     1.0000 0.44940  0.90050  0.70340  Biso   1.000  N
  C87      1.0000 0.50290  0.91690  0.71750  Biso   1.000  C
  H87      1.0000 0.51140  0.94840  0.72190  Biso   1.000  H
  N132     1.0000 0.54210  0.87980  0.72400  Biso   1.000  N
  C88      1.0000 0.51280  0.84060  0.71400  Biso   1.000  C
  H88      1.0000 0.52930  0.80990  0.71560  Biso   1.000  H
  N133     1.0000 0.45510  0.85280  0.55140  Biso   1.000  N
  N134     1.0000 0.44980  0.90040  0.54980  Biso   1.000  N
  C89      1.0000 0.50330  0.91670  0.53550  Biso   1.000  C
  H89      1.0000 0.51220  0.94830  0.53130  Biso   1.000  H
  N135     1.0000 0.54170  0.87930  0.52820  Biso   1.000  N
  C90      1.0000 0.51190  0.83980  0.53800  Biso   1.000  C
  H90      1.0000 0.52770  0.80900  0.53600  Biso   1.000  H
  N136     1.0000 0.36780  0.79780  0.65030  Biso   1.000  N
  C91      1.0000 0.39950  0.81640  0.62770  Biso   1.000  C
  H91      1.0000 0.43590  0.83710  0.62800  Biso   1.000  H
  N137     1.0000 0.36870  0.79940  0.60440  Biso   1.000  N
  C92      1.0000 0.31780  0.77040  0.61270  Biso   1.000  C
  H92      1.0000 0.28860  0.75400  0.60100  Biso   1.000  H
  N138     1.0000 0.31730  0.76940  0.64100  Biso   1.000  N
  Zn19     1.0000 0.38085  0.80975  0.56422  Biso   1.000  Zn
  Zn20     1.0000 0.38151  0.80896  0.68972  Biso   1.000  Zn
  Zn21     1.0000 0.62764  0.87826  0.74758  Biso   1.000  Zn
  C93      1.0000 0.39260  0.72030  0.52880  Biso   1.000  C
  H93      1.0000 0.43380  0.72860  0.52100  Biso   1.000  H
  N139     1.0000 0.35780  0.74580  0.54670  Biso   1.000  N
  N140     1.0000 0.30250  0.72230  0.55290  Biso   1.000  N
  C94      1.0000 0.30310  0.68220  0.53880  Biso   1.000  C
  H94      1.0000 0.27010  0.65890  0.53920  Biso   1.000  H
  N141     1.0000 0.35880  0.68100  0.52390  Biso   1.000  N
  N142     1.0000 0.35920  0.80620  0.64940  Biso   1.000  N
  C95      1.0000 0.39850  0.80580  0.62670  Biso   1.000  C
  H95      1.0000 0.44530  0.80490  0.62660  Biso   1.000  H
  N143     1.0000 0.35850  0.80700  0.60420  Biso   1.000  N
  C96      1.0000 0.29450  0.80810  0.61300  Biso   1.000  C
  H96      1.0000 0.25650  0.80900  0.60170  Biso   1.000  H
  N144     1.0000 0.29490  0.80760  0.64090  Biso   1.000  N
  C97      1.0000 0.37430  0.72790  0.49520  Biso   1.000  C
  H97      1.0000 0.37380  0.72400  0.47600  Biso   1.000  H
  N145     1.0000 0.37550  0.76980  0.50890  Biso   1.000  N
  N146     1.0000 0.37580  0.76050  0.53660  Biso   1.000  N
  C98      1.0000 0.37470  0.71290  0.54000  Biso   1.000  C
  H98      1.0000 0.37460  0.69690  0.55690  Biso   1.000  H
  N147     1.0000 0.37370  0.69280  0.51440  Biso   1.000  N
  C99      1.0000 0.62510  0.29160  0.28792  Biso   1.000  C
  H99      1.0000 0.62400  0.30630  0.30520  Biso   1.000  H
  N148     1.0000 0.62660  0.31330  0.26322  Biso   1.000  N
  C100     1.0000 0.62800  0.28010  0.24345  Biso   1.000  C
  H100     1.0000 0.62920  0.28540  0.22430  Biso   1.000  H
  N149     1.0000 0.62740  0.23780  0.25590  Biso   1.000  N
  N150     1.0000 0.62560  0.24490  0.28340  Biso   1.000  N
  N151     1.0000 0.45560  0.35340  0.20130  Biso   1.000  N
  N152     1.0000 0.44940  0.40050  0.20340  Biso   1.000  N
  C101     1.0000 0.50290  0.41690  0.21750  Biso   1.000  C
  H101     1.0000 0.51140  0.44840  0.22190  Biso   1.000  H
  N153     1.0000 0.54210  0.37980  0.22400  Biso   1.000  N
  C102     1.0000 0.51280  0.34060  0.21400  Biso   1.000  C
  H102     1.0000 0.52930  0.30990  0.21560  Biso   1.000  H
  N154     1.0000 0.45510  0.35280  0.05140  Biso   1.000  N
  N155     1.0000 0.44980  0.40040  0.04980  Biso   1.000  N
  C103     1.0000 0.50330  0.41670  0.03550  Biso   1.000  C
  H103     1.0000 0.51220  0.44830  0.03130  Biso   1.000  H
  N156     1.0000 0.54170  0.37930  0.02820  Biso   1.000  N
  C104     1.0000 0.51190  0.33980  0.03800  Biso   1.000  C
  H104     1.0000 0.52770  0.30900  0.03600  Biso   1.000  H
  N157     1.0000 0.36780  0.29780  0.15030  Biso   1.000  N
  C105     1.0000 0.39950  0.31640  0.12770  Biso   1.000  C
  H105     1.0000 0.43590  0.33710  0.12800  Biso   1.000  H
  N158     1.0000 0.36870  0.29940  0.10440  Biso   1.000  N
  C106     1.0000 0.31780  0.27040  0.11270  Biso   1.000  C
  H106     1.0000 0.28860  0.25400  0.10100  Biso   1.000  H
  N159     1.0000 0.31730  0.26940  0.14100  Biso   1.000  N
  Zn22     1.0000 0.38085  0.30975  0.06422  Biso   1.000  Zn
  Zn23     1.0000 0.38151  0.30896  0.18972  Biso   1.000  Zn
  Zn24     1.0000 0.62764  0.37826  0.24758  Biso   1.000  Zn
  C107     1.0000 0.39260  0.22030  0.02880  Biso   1.000  C
  H107     1.0000 0.43380  0.22860  0.02100  Biso   1.000  H
  N160     1.0000 0.35780  0.24580  0.04670  Biso   1.000  N
  N161     1.0000 0.30250  0.22230  0.05290  Biso   1.000  N
  C108     1.0000 0.30310  0.18220  0.03880  Biso   1.000  C
  H108     1.0000 0.27010  0.15890  0.03920  Biso   1.000  H
  N162     1.0000 0.35880  0.18100  0.02390  Biso   1.000  N
  N163     1.0000 0.35920  0.30620  0.14940  Biso   1.000  N
  C109     1.0000 0.39850  0.30580  0.12670  Biso   1.000  C
  H109     1.0000 0.44530  0.30490  0.12660  Biso   1.000  H
  N164     1.0000 0.35850  0.30700  0.10420  Biso   1.000  N
  C110     1.0000 0.29450  0.30810  0.11300  Biso   1.000  C
  H110     1.0000 0.25650  0.30900  0.10170  Biso   1.000  H
  N165     1.0000 0.29490  0.30760  0.14090  Biso   1.000  N
  C111     1.0000 0.37430  0.22790  0.99520  Biso   1.000  C
  H111     1.0000 0.37380  0.22400  0.97600  Biso   1.000  H
  N166     1.0000 0.37550  0.26980  0.00890  Biso   1.000  N
  N167     1.0000 0.37580  0.26050  0.03660  Biso   1.000  N
  C112     1.0000 0.37470  0.21290  0.04000  Biso   1.000  C
  H112     1.0000 0.37460  0.19690  0.05690  Biso   1.000  H
  N168     1.0000 0.37370  0.19280  0.01440  Biso   1.000  N
  C113     1.0000 0.12510  0.95840  0.46208  Biso   1.000  C
  H113     1.0000 0.12400  0.94370  0.44480  Biso   1.000  H
  N169     1.0000 0.12660  0.93670  0.48678  Biso   1.000  N
  C114     1.0000 0.12800  0.96990  0.50655  Biso   1.000  C
  H114     1.0000 0.12920  0.96460  0.52570  Biso   1.000  H
  N170     1.0000 0.12740  0.01220  0.49410  Biso   1.000  N
  N171     1.0000 0.12560  0.00510  0.46660  Biso   1.000  N
  N172     1.0000 0.95560  0.89660  0.54870  Biso   1.000  N
  N173     1.0000 0.94940  0.84950  0.54660  Biso   1.000  N
  C115     1.0000 0.00290  0.83310  0.53250  Biso   1.000  C
  H115     1.0000 0.01140  0.80160  0.52810  Biso   1.000  H
  N174     1.0000 0.04210  0.87020  0.52600  Biso   1.000  N
  C116     1.0000 0.01280  0.90940  0.53600  Biso   1.000  C
  H116     1.0000 0.02930  0.94010  0.53440  Biso   1.000  H
  N175     1.0000 0.95510  0.89720  0.69860  Biso   1.000  N
  N176     1.0000 0.94980  0.84960  0.70020  Biso   1.000  N
  C117     1.0000 0.00330  0.83330  0.71450  Biso   1.000  C
  H117     1.0000 0.01220  0.80170  0.71870  Biso   1.000  H
  N177     1.0000 0.04170  0.87070  0.72180  Biso   1.000  N
  C118     1.0000 0.01190  0.91020  0.71200  Biso   1.000  C
  H118     1.0000 0.02770  0.94100  0.71400  Biso   1.000  H
  N178     1.0000 0.86780  0.95220  0.59970  Biso   1.000  N
  C119     1.0000 0.89950  0.93360  0.62230  Biso   1.000  C
  H119     1.0000 0.93590  0.91290  0.62200  Biso   1.000  H
  N179     1.0000 0.86870  0.95060  0.64560  Biso   1.000  N
  C120     1.0000 0.81780  0.97960  0.63730  Biso   1.000  C
  H120     1.0000 0.78860  0.99600  0.64900  Biso   1.000  H
  N180     1.0000 0.81730  0.98060  0.60900  Biso   1.000  N
  Zn25     1.0000 0.88085  0.94025  0.68578  Biso   1.000  Zn
  Zn26     1.0000 0.88151  0.94104  0.56028  Biso   1.000  Zn
  Zn27     1.0000 0.12764  0.87174  0.50242  Biso   1.000  Zn
  C121     1.0000 0.89260  0.02970  0.72120  Biso   1.000  C
  H121     1.0000 0.93380  0.02140  0.72900  Biso   1.000  H
  N181     1.0000 0.85780  0.00420  0.70330  Biso   1.000  N
  N182     1.0000 0.80250  0.02770  0.69710  Biso   1.000  N
  C122     1.0000 0.80310  0.06780  0.71120  Biso   1.000  C
  H122     1.0000 0.77010  0.09110  0.71080  Biso   1.000  H
  N183     1.0000 0.85880  0.06900  0.72610  Biso   1.000  N
  N184     1.0000 0.85920  0.94380  0.60060  Biso   1.000  N
  C123     1.0000 0.89850  0.94420  0.62330  Biso   1.000  C
  H123     1.0000 0.94530  0.94510  0.62340  Biso   1.000  H
  N185     1.0000 0.85850  0.94300  0.64580  Biso   1.000  N
  C124     1.0000 0.79450  0.94190  0.63700  Biso   1.000  C
  H124     1.0000 0.75650  0.94100  0.64830  Biso   1.000  H
  N186     1.0000 0.79490  0.94240  0.60910  Biso   1.000  N
  C125     1.0000 0.87430  0.02210  0.75480  Biso   1.000  C
  H125     1.0000 0.87380  0.02600  0.77400  Biso   1.000  H
  N187     1.0000 0.87550  0.98020  0.74110  Biso   1.000  N
  N188     1.0000 0.87580  0.98950  0.71340  Biso   1.000  N
  C126     1.0000 0.87470  0.03710  0.71000  Biso   1.000  C
  H126     1.0000 0.87460  0.05310  0.69310  Biso   1.000  H
  N189     1.0000 0.87370  0.05720  0.73560  Biso   1.000  N
  C127     1.0000 0.12510  0.45840  0.96208  Biso   1.000  C
  H127     1.0000 0.12400  0.44370  0.94480  Biso   1.000  H
  N190     1.0000 0.12660  0.43670  0.98678  Biso   1.000  N
  C128     1.0000 0.12800  0.46990  0.00655  Biso   1.000  C
  H128     1.0000 0.12920  0.46460  0.02570  Biso   1.000  H
  N191     1.0000 0.12740  0.51220  0.99410  Biso   1.000  N
  N192     1.0000 0.12560  0.50510  0.96660  Biso   1.000  N
  N193     1.0000 0.95560  0.39660  0.04870  Biso   1.000  N
  N194     1.0000 0.94940  0.34950  0.04660  Biso   1.000  N
  C129     1.0000 0.00290  0.33310  0.03250  Biso   1.000  C
  H129     1.0000 0.01140  0.30160  0.02810  Biso   1.000  H
  N195     1.0000 0.04210  0.37020  0.02600  Biso   1.000  N
  C130     1.0000 0.01280  0.40940  0.03600  Biso   1.000  C
  H130     1.0000 0.02930  0.44010  0.03440  Biso   1.000  H
  N196     1.0000 0.95510  0.39720  0.19860  Biso   1.000  N
  N197     1.0000 0.94980  0.34960  0.20020  Biso   1.000  N
  C131     1.0000 0.00330  0.33330  0.21450  Biso   1.000  C
  H131     1.0000 0.01220  0.30170  0.21870  Biso   1.000  H
  N198     1.0000 0.04170  0.37070  0.22180  Biso   1.000  N
  C132     1.0000 0.01190  0.41020  0.21200  Biso   1.000  C
  H132     1.0000 0.02770  0.44100  0.21400  Biso   1.000  H
  N199     1.0000 0.86780  0.45220  0.09970  Biso   1.000  N
  C133     1.0000 0.89950  0.43360  0.12230  Biso   1.000  C
  H133     1.0000 0.93590  0.41290  0.12200  Biso   1.000  H
  N200     1.0000 0.86870  0.45060  0.14560  Biso   1.000  N
  C134     1.0000 0.81780  0.47960  0.13730  Biso   1.000  C
  H134     1.0000 0.78860  0.49600  0.14900  Biso   1.000  H
  N201     1.0000 0.81730  0.48060  0.10900  Biso   1.000  N
  Zn28     1.0000 0.88085  0.44025  0.18578  Biso   1.000  Zn
  Zn29     1.0000 0.88151  0.44104  0.06028  Biso   1.000  Zn
  Zn30     1.0000 0.12764  0.37174  0.00242  Biso   1.000  Zn
  C135     1.0000 0.89260  0.52970  0.22120  Biso   1.000  C
  H135     1.0000 0.93380  0.52140  0.22900  Biso   1.000  H
  N202     1.0000 0.85780  0.50420  0.20330  Biso   1.000  N
  N203     1.0000 0.80250  0.52770  0.19710  Biso   1.000  N
  C136     1.0000 0.80310  0.56780  0.21120  Biso   1.000  C
  H136     1.0000 0.77010  0.59110  0.21080  Biso   1.000  H
  N204     1.0000 0.85880  0.56900  0.22610  Biso   1.000  N
  N205     1.0000 0.85920  0.44380  0.10060  Biso   1.000  N
  C137     1.0000 0.89850  0.44420  0.12330  Biso   1.000  C
  H137     1.0000 0.94530  0.44510  0.12340  Biso   1.000  H
  N206     1.0000 0.85850  0.44300  0.14580  Biso   1.000  N
  C138     1.0000 0.79450  0.44190  0.13700  Biso   1.000  C
  H138     1.0000 0.75650  0.44100  0.14830  Biso   1.000  H
  N207     1.0000 0.79490  0.44240  0.10910  Biso   1.000  N
  C139     1.0000 0.87430  0.52210  0.25480  Biso   1.000  C
  H139     1.0000 0.87380  0.52600  0.27400  Biso   1.000  H
  N208     1.0000 0.87550  0.48020  0.24110  Biso   1.000  N
  N209     1.0000 0.87580  0.48950  0.21340  Biso   1.000  N
  C140     1.0000 0.87470  0.53710  0.21000  Biso   1.000  C
  H140     1.0000 0.87460  0.55310  0.19310  Biso   1.000  H
  N210     1.0000 0.87370  0.55720  0.23560  Biso   1.000  N
  C141     1.0000 0.62510  0.95840  0.96208  Biso   1.000  C
  H141     1.0000 0.62400  0.94370  0.94480  Biso   1.000  H
  N211     1.0000 0.62660  0.93670  0.98678  Biso   1.000  N
  C142     1.0000 0.62800  0.96990  0.00655  Biso   1.000  C
  H142     1.0000 0.62920  0.96460  0.02570  Biso   1.000  H
  N212     1.0000 0.62740  0.01220  0.99410  Biso   1.000  N
  N213     1.0000 0.62560  0.00510  0.96660  Biso   1.000  N
  N214     1.0000 0.45560  0.89660  0.04870  Biso   1.000  N
  N215     1.0000 0.44940  0.84950  0.04660  Biso   1.000  N
  C143     1.0000 0.50290  0.83310  0.03250  Biso   1.000  C
  H143     1.0000 0.51140  0.80160  0.02810  Biso   1.000  H
  N216     1.0000 0.54210  0.87020  0.02600  Biso   1.000  N
  C144     1.0000 0.51280  0.90940  0.03600  Biso   1.000  C
  H144     1.0000 0.52930  0.94010  0.03440  Biso   1.000  H
  N217     1.0000 0.45510  0.89720  0.19860  Biso   1.000  N
  N218     1.0000 0.44980  0.84960  0.20020  Biso   1.000  N
  C145     1.0000 0.50330  0.83330  0.21450  Biso   1.000  C
  H145     1.0000 0.51220  0.80170  0.21870  Biso   1.000  H
  N219     1.0000 0.54170  0.87070  0.22180  Biso   1.000  N
  C146     1.0000 0.51190  0.91020  0.21200  Biso   1.000  C
  H146     1.0000 0.52770  0.94100  0.21400  Biso   1.000  H
  N220     1.0000 0.36780  0.95220  0.09970  Biso   1.000  N
  C147     1.0000 0.39950  0.93360  0.12230  Biso   1.000  C
  H147     1.0000 0.43590  0.91290  0.12200  Biso   1.000  H
  N221     1.0000 0.36870  0.95060  0.14560  Biso   1.000  N
  C148     1.0000 0.31780  0.97960  0.13730  Biso   1.000  C
  H148     1.0000 0.28860  0.99600  0.14900  Biso   1.000  H
  N222     1.0000 0.31730  0.98060  0.10900  Biso   1.000  N
  Zn31     1.0000 0.38085  0.94025  0.18578  Biso   1.000  Zn
  Zn32     1.0000 0.38151  0.94104  0.06028  Biso   1.000  Zn
  Zn33     1.0000 0.62764  0.87174  0.00242  Biso   1.000  Zn
  C149     1.0000 0.39260  0.02970  0.22120  Biso   1.000  C
  H149     1.0000 0.43380  0.02140  0.22900  Biso   1.000  H
  N223     1.0000 0.35780  0.00420  0.20330  Biso   1.000  N
  N224     1.0000 0.30250  0.02770  0.19710  Biso   1.000  N
  C150     1.0000 0.30310  0.06780  0.21120  Biso   1.000  C
  H150     1.0000 0.27010  0.09110  0.21080  Biso   1.000  H
  N225     1.0000 0.35880  0.06900  0.22610  Biso   1.000  N
  N226     1.0000 0.35920  0.94380  0.10060  Biso   1.000  N
  C151     1.0000 0.39850  0.94420  0.12330  Biso   1.000  C
  H151     1.0000 0.44530  0.94510  0.12340  Biso   1.000  H
  N227     1.0000 0.35850  0.94300  0.14580  Biso   1.000  N
  C152     1.0000 0.29450  0.94190  0.13700  Biso   1.000  C
  H152     1.0000 0.25650  0.94100  0.14830  Biso   1.000  H
  N228     1.0000 0.29490  0.94240  0.10910  Biso   1.000  N
  C153     1.0000 0.37430  0.02210  0.25480  Biso   1.000  C
  H153     1.0000 0.37380  0.02600  0.27400  Biso   1.000  H
  N229     1.0000 0.37550  0.98020  0.24110  Biso   1.000  N
  N230     1.0000 0.37580  0.98950  0.21340  Biso   1.000  N
  C154     1.0000 0.37470  0.03710  0.21000  Biso   1.000  C
  H154     1.0000 0.37460  0.05310  0.19310  Biso   1.000  H
  N231     1.0000 0.37370  0.05720  0.23560  Biso   1.000  N
  C155     1.0000 0.62510  0.45840  0.46208  Biso   1.000  C
  H155     1.0000 0.62400  0.44370  0.44480  Biso   1.000  H
  N232     1.0000 0.62660  0.43670  0.48678  Biso   1.000  N
  C156     1.0000 0.62800  0.46990  0.50655  Biso   1.000  C
  H156     1.0000 0.62920  0.46460  0.52570  Biso   1.000  H
  N233     1.0000 0.62740  0.51220  0.49410  Biso   1.000  N
  N234     1.0000 0.62560  0.50510  0.46660  Biso   1.000  N
  N235     1.0000 0.45560  0.39660  0.54870  Biso   1.000  N
  N236     1.0000 0.44940  0.34950  0.54660  Biso   1.000  N
  C157     1.0000 0.50290  0.33310  0.53250  Biso   1.000  C
  H157     1.0000 0.51140  0.30160  0.52810  Biso   1.000  H
  N237     1.0000 0.54210  0.37020  0.52600  Biso   1.000  N
  C158     1.0000 0.51280  0.40940  0.53600  Biso   1.000  C
  H158     1.0000 0.52930  0.44010  0.53440  Biso   1.000  H
  N238     1.0000 0.45510  0.39720  0.69860  Biso   1.000  N
  N239     1.0000 0.44980  0.34960  0.70020  Biso   1.000  N
  C159     1.0000 0.50330  0.33330  0.71450  Biso   1.000  C
  H159     1.0000 0.51220  0.30170  0.71870  Biso   1.000  H
  N240     1.0000 0.54170  0.37070  0.72180  Biso   1.000  N
  C160     1.0000 0.51190  0.41020  0.71200  Biso   1.000  C
  H160     1.0000 0.52770  0.44100  0.71400  Biso   1.000  H
  N241     1.0000 0.36780  0.45220  0.59970  Biso   1.000  N
  C161     1.0000 0.39950  0.43360  0.62230  Biso   1.000  C
  H161     1.0000 0.43590  0.41290  0.62200  Biso   1.000  H
  N242     1.0000 0.36870  0.45060  0.64560  Biso   1.000  N
  C162     1.0000 0.31780  0.47960  0.63730  Biso   1.000  C
  H162     1.0000 0.28860  0.49600  0.64900  Biso   1.000  H
  N243     1.0000 0.31730  0.48060  0.60900  Biso   1.000  N
  Zn34     1.0000 0.38085  0.44025  0.68578  Biso   1.000  Zn
  Zn35     1.0000 0.38151  0.44104  0.56028  Biso   1.000  Zn
  Zn36     1.0000 0.62764  0.37174  0.50242  Biso   1.000  Zn
  C163     1.0000 0.39260  0.52970  0.72120  Biso   1.000  C
  H163     1.0000 0.43380  0.52140  0.72900  Biso   1.000  H
  N244     1.0000 0.35780  0.50420  0.70330  Biso   1.000  N
  N245     1.0000 0.30250  0.52770  0.69710  Biso   1.000  N
  C164     1.0000 0.30310  0.56780  0.71120  Biso   1.000  C
  H164     1.0000 0.27010  0.59110  0.71080  Biso   1.000  H
  N246     1.0000 0.35880  0.56900  0.72610  Biso   1.000  N
  N247     1.0000 0.35920  0.44380  0.60060  Biso   1.000  N
  C165     1.0000 0.39850  0.44420  0.62330  Biso   1.000  C
  H165     1.0000 0.44530  0.44510  0.62340  Biso   1.000  H
  N248     1.0000 0.35850  0.44300  0.64580  Biso   1.000  N
  C166     1.0000 0.29450  0.44190  0.63700  Biso   1.000  C
  H166     1.0000 0.25650  0.44100  0.64830  Biso   1.000  H
  N249     1.0000 0.29490  0.44240  0.60910  Biso   1.000  N
  C167     1.0000 0.37430  0.52210  0.75480  Biso   1.000  C
  H167     1.0000 0.37380  0.52600  0.77400  Biso   1.000  H
  N250     1.0000 0.37550  0.48020  0.74110  Biso   1.000  N
  N251     1.0000 0.37580  0.48950  0.71340  Biso   1.000  N
  C168     1.0000 0.37470  0.53710  0.71000  Biso   1.000  C
  H168     1.0000 0.37460  0.55310  0.69310  Biso   1.000  H
  N252     1.0000 0.37370  0.55720  0.73560  Biso   1.000  N
  C169     1.0000 0.62490  0.79160  0.46208  Biso   1.000  C
  H169     1.0000 0.62600  0.80630  0.44480  Biso   1.000  H
  N253     1.0000 0.62340  0.81330  0.48678  Biso   1.000  N
  C170     1.0000 0.62200  0.78010  0.50655  Biso   1.000  C
  H170     1.0000 0.62080  0.78540  0.52570  Biso   1.000  H
  N254     1.0000 0.62260  0.73780  0.49410  Biso   1.000  N
  N255     1.0000 0.62440  0.74490  0.46660  Biso   1.000  N
  N256     1.0000 0.79440  0.85340  0.54870  Biso   1.000  N
  N257     1.0000 0.80060  0.90050  0.54660  Biso   1.000  N
  C171     1.0000 0.74710  0.91690  0.53250  Biso   1.000  C
  H171     1.0000 0.73860  0.94840  0.52810  Biso   1.000  H
  N258     1.0000 0.70790  0.87980  0.52600  Biso   1.000  N
  C172     1.0000 0.73720  0.84060  0.53600  Biso   1.000  C
  H172     1.0000 0.72070  0.80990  0.53440  Biso   1.000  H
  N259     1.0000 0.79490  0.85280  0.69860  Biso   1.000  N
  N260     1.0000 0.80020  0.90040  0.70020  Biso   1.000  N
  C173     1.0000 0.74670  0.91670  0.71450  Biso   1.000  C
  H173     1.0000 0.73780  0.94830  0.71870  Biso   1.000  H
  N261     1.0000 0.70830  0.87930  0.72180  Biso   1.000  N
  C174     1.0000 0.73810  0.83980  0.71200  Biso   1.000  C
  H174     1.0000 0.72230  0.80900  0.71400  Biso   1.000  H
  N262     1.0000 0.88220  0.79780  0.59970  Biso   1.000  N
  C175     1.0000 0.85050  0.81640  0.62230  Biso   1.000  C
  H175     1.0000 0.81410  0.83710  0.62200  Biso   1.000  H
  N263     1.0000 0.88130  0.79940  0.64560  Biso   1.000  N
  C176     1.0000 0.93220  0.77040  0.63730  Biso   1.000  C
  H176     1.0000 0.96140  0.75400  0.64900  Biso   1.000  H
  N264     1.0000 0.93270  0.76940  0.60900  Biso   1.000  N
  Zn37     1.0000 0.86915  0.80975  0.68578  Biso   1.000  Zn
  Zn38     1.0000 0.86849  0.80896  0.56028  Biso   1.000  Zn
  Zn39     1.0000 0.62236  0.87826  0.50242  Biso   1.000  Zn
  C177     1.0000 0.85740  0.72030  0.72120  Biso   1.000  C
  H177     1.0000 0.81620  0.72860  0.72900  Biso   1.000  H
  N265     1.0000 0.89220  0.74580  0.70330  Biso   1.000  N
  N266     1.0000 0.94750  0.72230  0.69710  Biso   1.000  N
  C178     1.0000 0.94690  0.68220  0.71120  Biso   1.000  C
  H178     1.0000 0.97990  0.65890  0.71080  Biso   1.000  H
  N267     1.0000 0.89120  0.68100  0.72610  Biso   1.000  N
  N268     1.0000 0.89080  0.80620  0.60060  Biso   1.000  N
  C179     1.0000 0.85150  0.80580  0.62330  Biso   1.000  C
  H179     1.0000 0.80470  0.80490  0.62340  Biso   1.000  H
  N269     1.0000 0.89150  0.80700  0.64580  Biso   1.000  N
  C180     1.0000 0.95550  0.80810  0.63700  Biso   1.000  C
  H180     1.0000 0.99350  0.80900  0.64830  Biso   1.000  H
  N270     1.0000 0.95510  0.80760  0.60910  Biso   1.000  N
  C181     1.0000 0.87570  0.72790  0.75480  Biso   1.000  C
  H181     1.0000 0.87620  0.72400  0.77400  Biso   1.000  H
  N271     1.0000 0.87450  0.76980  0.74110  Biso   1.000  N
  N272     1.0000 0.87420  0.76050  0.71340  Biso   1.000  N
  C182     1.0000 0.87530  0.71290  0.71000  Biso   1.000  C
  H182     1.0000 0.87540  0.69690  0.69310  Biso   1.000  H
  N273     1.0000 0.87630  0.69280  0.73560  Biso   1.000  N
  C183     1.0000 0.62490  0.29160  0.96208  Biso   1.000  C
  H183     1.0000 0.62600  0.30630  0.94480  Biso   1.000  H
  N274     1.0000 0.62340  0.31330  0.98678  Biso   1.000  N
  C184     1.0000 0.62200  0.28010  0.00655  Biso   1.000  C
  H184     1.0000 0.62080  0.28540  0.02570  Biso   1.000  H
  N275     1.0000 0.62260  0.23780  0.99410  Biso   1.000  N
  N276     1.0000 0.62440  0.24490  0.96660  Biso   1.000  N
  N277     1.0000 0.79440  0.35340  0.04870  Biso   1.000  N
  N278     1.0000 0.80060  0.40050  0.04660  Biso   1.000  N
  C185     1.0000 0.74710  0.41690  0.03250  Biso   1.000  C
  H185     1.0000 0.73860  0.44840  0.02810  Biso   1.000  H
  N279     1.0000 0.70790  0.37980  0.02600  Biso   1.000  N
  C186     1.0000 0.73720  0.34060  0.03600  Biso   1.000  C
  H186     1.0000 0.72070  0.30990  0.03440  Biso   1.000  H
  N280     1.0000 0.79490  0.35280  0.19860  Biso   1.000  N
  N281     1.0000 0.80020  0.40040  0.20020  Biso   1.000  N
  C187     1.0000 0.74670  0.41670  0.21450  Biso   1.000  C
  H187     1.0000 0.73780  0.44830  0.21870  Biso   1.000  H
  N282     1.0000 0.70830  0.37930  0.22180  Biso   1.000  N
  C188     1.0000 0.73810  0.33980  0.21200  Biso   1.000  C
  H188     1.0000 0.72230  0.30900  0.21400  Biso   1.000  H
  N283     1.0000 0.88220  0.29780  0.09970  Biso   1.000  N
  C189     1.0000 0.85050  0.31640  0.12230  Biso   1.000  C
  H189     1.0000 0.81410  0.33710  0.12200  Biso   1.000  H
  N284     1.0000 0.88130  0.29940  0.14560  Biso   1.000  N
  C190     1.0000 0.93220  0.27040  0.13730  Biso   1.000  C
  H190     1.0000 0.96140  0.25400  0.14900  Biso   1.000  H
  N285     1.0000 0.93270  0.26940  0.10900  Biso   1.000  N
  Zn40     1.0000 0.86915  0.30975  0.18578  Biso   1.000  Zn
  Zn41     1.0000 0.86849  0.30896  0.06028  Biso   1.000  Zn
  Zn42     1.0000 0.62236  0.37826  0.00242  Biso   1.000  Zn
  C191     1.0000 0.85740  0.22030  0.22120  Biso   1.000  C
  H191     1.0000 0.81620  0.22860  0.22900  Biso   1.000  H
  N286     1.0000 0.89220  0.24580  0.20330  Biso   1.000  N
  N287     1.0000 0.94750  0.22230  0.19710  Biso   1.000  N
  C192     1.0000 0.94690  0.18220  0.21120  Biso   1.000  C
  H192     1.0000 0.97990  0.15890  0.21080  Biso   1.000  H
  N288     1.0000 0.89120  0.18100  0.22610  Biso   1.000  N
  N289     1.0000 0.89080  0.30620  0.10060  Biso   1.000  N
  C193     1.0000 0.85150  0.30580  0.12330  Biso   1.000  C
  H193     1.0000 0.80470  0.30490  0.12340  Biso   1.000  H
  N290     1.0000 0.89150  0.30700  0.14580  Biso   1.000  N
  C194     1.0000 0.95550  0.30810  0.13700  Biso   1.000  C
  H194     1.0000 0.99350  0.30900  0.14830  Biso   1.000  H
  N291     1.0000 0.95510  0.30760  0.10910  Biso   1.000  N
  C195     1.0000 0.87570  0.22790  0.25480  Biso   1.000  C
  H195     1.0000 0.87620  0.22400  0.27400  Biso   1.000  H
  N292     1.0000 0.87450  0.26980  0.24110  Biso   1.000  N
  N293     1.0000 0.87420  0.26050  0.21340  Biso   1.000  N
  C196     1.0000 0.87530  0.21290  0.21000  Biso   1.000  C
  H196     1.0000 0.87540  0.19690  0.19310  Biso   1.000  H
  N294     1.0000 0.87630  0.19280  0.23560  Biso   1.000  N
  C197     1.0000 0.12490  0.79160  0.96208  Biso   1.000  C
  H197     1.0000 0.12600  0.80630  0.94480  Biso   1.000  H
  N295     1.0000 0.12340  0.81330  0.98678  Biso   1.000  N
  C198     1.0000 0.12200  0.78010  0.00655  Biso   1.000  C
  H198     1.0000 0.12080  0.78540  0.02570  Biso   1.000  H
  N296     1.0000 0.12260  0.73780  0.99410  Biso   1.000  N
  N297     1.0000 0.12440  0.74490  0.96660  Biso   1.000  N
  N298     1.0000 0.29440  0.85340  0.04870  Biso   1.000  N
  N299     1.0000 0.30060  0.90050  0.04660  Biso   1.000  N
  C199     1.0000 0.24710  0.91690  0.03250  Biso   1.000  C
  H199     1.0000 0.23860  0.94840  0.02810  Biso   1.000  H
  N300     1.0000 0.20790  0.87980  0.02600  Biso   1.000  N
  C200     1.0000 0.23720  0.84060  0.03600  Biso   1.000  C
  H200     1.0000 0.22070  0.80990  0.03440  Biso   1.000  H
  N301     1.0000 0.29490  0.85280  0.19860  Biso   1.000  N
  N302     1.0000 0.30020  0.90040  0.20020  Biso   1.000  N
  C201     1.0000 0.24670  0.91670  0.21450  Biso   1.000  C
  H201     1.0000 0.23780  0.94830  0.21870  Biso   1.000  H
  N303     1.0000 0.20830  0.87930  0.22180  Biso   1.000  N
  C202     1.0000 0.23810  0.83980  0.21200  Biso   1.000  C
  H202     1.0000 0.22230  0.80900  0.21400  Biso   1.000  H
  N304     1.0000 0.38220  0.79780  0.09970  Biso   1.000  N
  C203     1.0000 0.35050  0.81640  0.12230  Biso   1.000  C
  H203     1.0000 0.31410  0.83710  0.12200  Biso   1.000  H
  N305     1.0000 0.38130  0.79940  0.14560  Biso   1.000  N
  C204     1.0000 0.43220  0.77040  0.13730  Biso   1.000  C
  H204     1.0000 0.46140  0.75400  0.14900  Biso   1.000  H
  N306     1.0000 0.43270  0.76940  0.10900  Biso   1.000  N
  Zn43     1.0000 0.36915  0.80975  0.18578  Biso   1.000  Zn
  Zn44     1.0000 0.36849  0.80896  0.06028  Biso   1.000  Zn
  Zn45     1.0000 0.12236  0.87826  0.00242  Biso   1.000  Zn
  C205     1.0000 0.35740  0.72030  0.22120  Biso   1.000  C
  H205     1.0000 0.31620  0.72860  0.22900  Biso   1.000  H
  N307     1.0000 0.39220  0.74580  0.20330  Biso   1.000  N
  N308     1.0000 0.44750  0.72230  0.19710  Biso   1.000  N
  C206     1.0000 0.44690  0.68220  0.21120  Biso   1.000  C
  H206     1.0000 0.47990  0.65890  0.21080  Biso   1.000  H
  N309     1.0000 0.39120  0.68100  0.22610  Biso   1.000  N
  N310     1.0000 0.39080  0.80620  0.10060  Biso   1.000  N
  C207     1.0000 0.35150  0.80580  0.12330  Biso   1.000  C
  H207     1.0000 0.30470  0.80490  0.12340  Biso   1.000  H
  N311     1.0000 0.39150  0.80700  0.14580  Biso   1.000  N
  C208     1.0000 0.45550  0.80810  0.13700  Biso   1.000  C
  H208     1.0000 0.49350  0.80900  0.14830  Biso   1.000  H
  N312     1.0000 0.45510  0.80760  0.10910  Biso   1.000  N
  C209     1.0000 0.37570  0.72790  0.25480  Biso   1.000  C
  H209     1.0000 0.37620  0.72400  0.27400  Biso   1.000  H
  N313     1.0000 0.37450  0.76980  0.24110  Biso   1.000  N
  N314     1.0000 0.37420  0.76050  0.21340  Biso   1.000  N
  C210     1.0000 0.37530  0.71290  0.21000  Biso   1.000  C
  H210     1.0000 0.37540  0.69690  0.19310  Biso   1.000  H
  N315     1.0000 0.37630  0.69280  0.23560  Biso   1.000  N
  C211     1.0000 0.12490  0.29160  0.46208  Biso   1.000  C
  H211     1.0000 0.12600  0.30630  0.44480  Biso   1.000  H
  N316     1.0000 0.12340  0.31330  0.48678  Biso   1.000  N
  C212     1.0000 0.12200  0.28010  0.50655  Biso   1.000  C
  H212     1.0000 0.12080  0.28540  0.52570  Biso   1.000  H
  N317     1.0000 0.12260  0.23780  0.49410  Biso   1.000  N
  N318     1.0000 0.12440  0.24490  0.46660  Biso   1.000  N
  N319     1.0000 0.29440  0.35340  0.54870  Biso   1.000  N
  N320     1.0000 0.30060  0.40050  0.54660  Biso   1.000  N
  C213     1.0000 0.24710  0.41690  0.53250  Biso   1.000  C
  H213     1.0000 0.23860  0.44840  0.52810  Biso   1.000  H
  N321     1.0000 0.20790  0.37980  0.52600  Biso   1.000  N
  C214     1.0000 0.23720  0.34060  0.53600  Biso   1.000  C
  H214     1.0000 0.22070  0.30990  0.53440  Biso   1.000  H
  N322     1.0000 0.29490  0.35280  0.69860  Biso   1.000  N
  N323     1.0000 0.30020  0.40040  0.70020  Biso   1.000  N
  C215     1.0000 0.24670  0.41670  0.71450  Biso   1.000  C
  H215     1.0000 0.23780  0.44830  0.71870  Biso   1.000  H
  N324     1.0000 0.20830  0.37930  0.72180  Biso   1.000  N
  C216     1.0000 0.23810  0.33980  0.71200  Biso   1.000  C
  H216     1.0000 0.22230  0.30900  0.71400  Biso   1.000  H
  N325     1.0000 0.38220  0.29780  0.59970  Biso   1.000  N
  C217     1.0000 0.35050  0.31640  0.62230  Biso   1.000  C
  H217     1.0000 0.31410  0.33710  0.62200  Biso   1.000  H
  N326     1.0000 0.38130  0.29940  0.64560  Biso   1.000  N
  C218     1.0000 0.43220  0.27040  0.63730  Biso   1.000  C
  H218     1.0000 0.46140  0.25400  0.64900  Biso   1.000  H
  N327     1.0000 0.43270  0.26940  0.60900  Biso   1.000  N
  Zn46     1.0000 0.36915  0.30975  0.68578  Biso   1.000  Zn
  Zn47     1.0000 0.36849  0.30896  0.56028  Biso   1.000  Zn
  Zn48     1.0000 0.12236  0.37826  0.50242  Biso   1.000  Zn
  C219     1.0000 0.35740  0.22030  0.72120  Biso   1.000  C
  H219     1.0000 0.31620  0.22860  0.72900  Biso   1.000  H
  N328     1.0000 0.39220  0.24580  0.70330  Biso   1.000  N
  N329     1.0000 0.44750  0.22230  0.69710  Biso   1.000  N
  C220     1.0000 0.44690  0.18220  0.71120  Biso   1.000  C
  H220     1.0000 0.47990  0.15890  0.71080  Biso   1.000  H
  N330     1.0000 0.39120  0.18100  0.72610  Biso   1.000  N
  N331     1.0000 0.39080  0.30620  0.60060  Biso   1.000  N
  C221     1.0000 0.35150  0.30580  0.62330  Biso   1.000  C
  H221     1.0000 0.30470  0.30490  0.62340  Biso   1.000  H
  N332     1.0000 0.39150  0.30700  0.64580  Biso   1.000  N
  C222     1.0000 0.45550  0.30810  0.63700  Biso   1.000  C
  H222     1.0000 0.49350  0.30900  0.64830  Biso   1.000  H
  N333     1.0000 0.45510  0.30760  0.60910  Biso   1.000  N
  C223     1.0000 0.37570  0.22790  0.75480  Biso   1.000  C
  H223     1.0000 0.37620  0.22400  0.77400  Biso   1.000  H
  N334     1.0000 0.37450  0.26980  0.74110  Biso   1.000  N
  N335     1.0000 0.37420  0.26050  0.71340  Biso   1.000  N
  C224     1.0000 0.37530  0.21290  0.71000  Biso   1.000  C
  H224     1.0000 0.37540  0.19690  0.69310  Biso   1.000  H
  N336     1.0000 0.37630  0.19280  0.73560  Biso   1.000  N
  C225     1.0000 0.37510  0.04160  0.71208  Biso   1.000  C
  H225     1.0000 0.37400  0.05630  0.69480  Biso   1.000  H
  N337     1.0000 0.37660  0.06330  0.73678  Biso   1.000  N
  C226     1.0000 0.37800  0.03010  0.75655  Biso   1.000  C
  H226     1.0000 0.37920  0.03540  0.77570  Biso   1.000  H
  N338     1.0000 0.37740  0.98780  0.74410  Biso   1.000  N
  N339     1.0000 0.37560  0.99490  0.71660  Biso   1.000  N
  N340     1.0000 0.20560  0.10340  0.79870  Biso   1.000  N
  N341     1.0000 0.19940  0.15050  0.79660  Biso   1.000  N
  C227     1.0000 0.25290  0.16690  0.78250  Biso   1.000  C
  H227     1.0000 0.26140  0.19840  0.77810  Biso   1.000  H
  N342     1.0000 0.29210  0.12980  0.77600  Biso   1.000  N
  C228     1.0000 0.26280  0.09060  0.78600  Biso   1.000  C
  H228     1.0000 0.27930  0.05990  0.78440  Biso   1.000  H
  N343     1.0000 0.20510  0.10280  0.94860  Biso   1.000  N
  N344     1.0000 0.19980  0.15040  0.95020  Biso   1.000  N
  C229     1.0000 0.25330  0.16670  0.96450  Biso   1.000  C
  H229     1.0000 0.26220  0.19830  0.96870  Biso   1.000  H
  N345     1.0000 0.29170  0.12930  0.97180  Biso   1.000  N
  C230     1.0000 0.26190  0.08980  0.96200  Biso   1.000  C
  H230     1.0000 0.27770  0.05900  0.96400  Biso   1.000  H
  N346     1.0000 0.11780  0.04780  0.84970  Biso   1.000  N
  C231     1.0000 0.14950  0.06640  0.87230  Biso   1.000  C
  H231     1.0000 0.18590  0.08710  0.87200  Biso   1.000  H
  N347     1.0000 0.11870  0.04940  0.89560  Biso   1.000  N
  C232     1.0000 0.06780  0.02040  0.88730  Biso   1.000  C
  H232     1.0000 0.03860  0.00400  0.89900  Biso   1.000  H
  N348     1.0000 0.06730  0.01940  0.85900  Biso   1.000  N
  Zn49     1.0000 0.13085  0.05975  0.93578  Biso   1.000  Zn
  Zn50     1.0000 0.13151  0.05896  0.81028  Biso   1.000  Zn
  Zn51     1.0000 0.37764  0.12826  0.75242  Biso   1.000  Zn
  C233     1.0000 0.14260  0.97030  0.97120  Biso   1.000  C
  H233     1.0000 0.18380  0.97860  0.97900  Biso   1.000  H
  N349     1.0000 0.10780  0.99580  0.95330  Biso   1.000  N
  N350     1.0000 0.05250  0.97230  0.94710  Biso   1.000  N
  C234     1.0000 0.05310  0.93220  0.96120  Biso   1.000  C
  H234     1.0000 0.02010  0.90890  0.96080  Biso   1.000  H
  N351     1.0000 0.10880  0.93100  0.97610  Biso   1.000  N
  N352     1.0000 0.10920  0.05620  0.85060  Biso   1.000  N
  C235     1.0000 0.14850  0.05580  0.87330  Biso   1.000  C
  H235     1.0000 0.19530  0.05490  0.87340  Biso   1.000  H
  N353     1.0000 0.10850  0.05700  0.89580  Biso   1.000  N
  C236     1.0000 0.04450  0.05810  0.88700  Biso   1.000  C
  H236     1.0000 0.00650  0.05900  0.89830  Biso   1.000  H
  N354     1.0000 0.04490  0.05760  0.85910  Biso   1.000  N
  C237     1.0000 0.12430  0.97790  0.00480  Biso   1.000  C
  H237     1.0000 0.12380  0.97400  0.02400  Biso   1.000  H
  N355     1.0000 0.12550  0.01980  0.99110  Biso   1.000  N
  N356     1.0000 0.12580  0.01050  0.96340  Biso   1.000  N
  C238     1.0000 0.12470  0.96290  0.96000  Biso   1.000  C
  H238     1.0000 0.12460  0.94690  0.94310  Biso   1.000  H
  N357     1.0000 0.12370  0.94280  0.98560  Biso   1.000  N
  C239     1.0000 0.37510  0.54160  0.21208  Biso   1.000  C
  H239     1.0000 0.37400  0.55630  0.19480  Biso   1.000  H
  N358     1.0000 0.37660  0.56330  0.23678  Biso   1.000  N
  C240     1.0000 0.37800  0.53010  0.25655  Biso   1.000  C
  H240     1.0000 0.37920  0.53540  0.27570  Biso   1.000  H
  N359     1.0000 0.37740  0.48780  0.24410  Biso   1.000  N
  N360     1.0000 0.37560  0.49490  0.21660  Biso   1.000  N
  N361     1.0000 0.20560  0.60340  0.29870  Biso   1.000  N
  N362     1.0000 0.19940  0.65050  0.29660  Biso   1.000  N
  C241     1.0000 0.25290  0.66690  0.28250  Biso   1.000  C
  H241     1.0000 0.26140  0.69840  0.27810  Biso   1.000  H
  N363     1.0000 0.29210  0.62980  0.27600  Biso   1.000  N
  C242     1.0000 0.26280  0.59060  0.28600  Biso   1.000  C
  H242     1.0000 0.27930  0.55990  0.28440  Biso   1.000  H
  N364     1.0000 0.20510  0.60280  0.44860  Biso   1.000  N
  N365     1.0000 0.19980  0.65040  0.45020  Biso   1.000  N
  C243     1.0000 0.25330  0.66670  0.46450  Biso   1.000  C
  H243     1.0000 0.26220  0.69830  0.46870  Biso   1.000  H
  N366     1.0000 0.29170  0.62930  0.47180  Biso   1.000  N
  C244     1.0000 0.26190  0.58980  0.46200  Biso   1.000  C
  H244     1.0000 0.27770  0.55900  0.46400  Biso   1.000  H
  N367     1.0000 0.11780  0.54780  0.34970  Biso   1.000  N
  C245     1.0000 0.14950  0.56640  0.37230  Biso   1.000  C
  H245     1.0000 0.18590  0.58710  0.37200  Biso   1.000  H
  N368     1.0000 0.11870  0.54940  0.39560  Biso   1.000  N
  C246     1.0000 0.06780  0.52040  0.38730  Biso   1.000  C
  H246     1.0000 0.03860  0.50400  0.39900  Biso   1.000  H
  N369     1.0000 0.06730  0.51940  0.35900  Biso   1.000  N
  Zn52     1.0000 0.13085  0.55975  0.43578  Biso   1.000  Zn
  Zn53     1.0000 0.13151  0.55896  0.31028  Biso   1.000  Zn
  Zn54     1.0000 0.37764  0.62826  0.25242  Biso   1.000  Zn
  C247     1.0000 0.14260  0.47030  0.47120  Biso   1.000  C
  H247     1.0000 0.18380  0.47860  0.47900  Biso   1.000  H
  N370     1.0000 0.10780  0.49580  0.45330  Biso   1.000  N
  N371     1.0000 0.05250  0.47230  0.44710  Biso   1.000  N
  C248     1.0000 0.05310  0.43220  0.46120  Biso   1.000  C
  H248     1.0000 0.02010  0.40890  0.46080  Biso   1.000  H
  N372     1.0000 0.10880  0.43100  0.47610  Biso   1.000  N
  N373     1.0000 0.10920  0.55620  0.35060  Biso   1.000  N
  C249     1.0000 0.14850  0.55580  0.37330  Biso   1.000  C
  H249     1.0000 0.19530  0.55490  0.37340  Biso   1.000  H
  N374     1.0000 0.10850  0.55700  0.39580  Biso   1.000  N
  C250     1.0000 0.04450  0.55810  0.38700  Biso   1.000  C
  H250     1.0000 0.00650  0.55900  0.39830  Biso   1.000  H
  N375     1.0000 0.04490  0.55760  0.35910  Biso   1.000  N
  C251     1.0000 0.12430  0.47790  0.50480  Biso   1.000  C
  H251     1.0000 0.12380  0.47400  0.52400  Biso   1.000  H
  N376     1.0000 0.12550  0.51980  0.49110  Biso   1.000  N
  N377     1.0000 0.12580  0.51050  0.46340  Biso   1.000  N
  C252     1.0000 0.12470  0.46290  0.46000  Biso   1.000  C
  H252     1.0000 0.12460  0.44690  0.44310  Biso   1.000  H
  N378     1.0000 0.12370  0.44280  0.48560  Biso   1.000  N
  C253     1.0000 0.87510  0.04160  0.21208  Biso   1.000  C
  H253     1.0000 0.87400  0.05630  0.19480  Biso   1.000  H
  N379     1.0000 0.87660  0.06330  0.23678  Biso   1.000  N
  C254     1.0000 0.87800  0.03010  0.25655  Biso   1.000  C
  H254     1.0000 0.87920  0.03540  0.27570  Biso   1.000  H
  N380     1.0000 0.87740  0.98780  0.24410  Biso   1.000  N
  N381     1.0000 0.87560  0.99490  0.21660  Biso   1.000  N
  N382     1.0000 0.70560  0.10340  0.29870  Biso   1.000  N
  N383     1.0000 0.69940  0.15050  0.29660  Biso   1.000  N
  C255     1.0000 0.75290  0.16690  0.28250  Biso   1.000  C
  H255     1.0000 0.76140  0.19840  0.27810  Biso   1.000  H
  N384     1.0000 0.79210  0.12980  0.27600  Biso   1.000  N
  C256     1.0000 0.76280  0.09060  0.28600  Biso   1.000  C
  H256     1.0000 0.77930  0.05990  0.28440  Biso   1.000  H
  N385     1.0000 0.70510  0.10280  0.44860  Biso   1.000  N
  N386     1.0000 0.69980  0.15040  0.45020  Biso   1.000  N
  C257     1.0000 0.75330  0.16670  0.46450  Biso   1.000  C
  H257     1.0000 0.76220  0.19830  0.46870  Biso   1.000  H
  N387     1.0000 0.79170  0.12930  0.47180  Biso   1.000  N
  C258     1.0000 0.76190  0.08980  0.46200  Biso   1.000  C
  H258     1.0000 0.77770  0.05900  0.46400  Biso   1.000  H
  N388     1.0000 0.61780  0.04780  0.34970  Biso   1.000  N
  C259     1.0000 0.64950  0.06640  0.37230  Biso   1.000  C
  H259     1.0000 0.68590  0.08710  0.37200  Biso   1.000  H
  N389     1.0000 0.61870  0.04940  0.39560  Biso   1.000  N
  C260     1.0000 0.56780  0.02040  0.38730  Biso   1.000  C
  H260     1.0000 0.53860  0.00400  0.39900  Biso   1.000  H
  N390     1.0000 0.56730  0.01940  0.35900  Biso   1.000  N
  Zn55     1.0000 0.63085  0.05975  0.43578  Biso   1.000  Zn
  Zn56     1.0000 0.63151  0.05896  0.31028  Biso   1.000  Zn
  Zn57     1.0000 0.87764  0.12826  0.25242  Biso   1.000  Zn
  C261     1.0000 0.64260  0.97030  0.47120  Biso   1.000  C
  H261     1.0000 0.68380  0.97860  0.47900  Biso   1.000  H
  N391     1.0000 0.60780  0.99580  0.45330  Biso   1.000  N
  N392     1.0000 0.55250  0.97230  0.44710  Biso   1.000  N
  C262     1.0000 0.55310  0.93220  0.46120  Biso   1.000  C
  H262     1.0000 0.52010  0.90890  0.46080  Biso   1.000  H
  N393     1.0000 0.60880  0.93100  0.47610  Biso   1.000  N
  N394     1.0000 0.60920  0.05620  0.35060  Biso   1.000  N
  C263     1.0000 0.64850  0.05580  0.37330  Biso   1.000  C
  H263     1.0000 0.69530  0.05490  0.37340  Biso   1.000  H
  N395     1.0000 0.60850  0.05700  0.39580  Biso   1.000  N
  C264     1.0000 0.54450  0.05810  0.38700  Biso   1.000  C
  H264     1.0000 0.50650  0.05900  0.39830  Biso   1.000  H
  N396     1.0000 0.54490  0.05760  0.35910  Biso   1.000  N
  C265     1.0000 0.62430  0.97790  0.50480  Biso   1.000  C
  H265     1.0000 0.62380  0.97400  0.52400  Biso   1.000  H
  N397     1.0000 0.62550  0.01980  0.49110  Biso   1.000  N
  N398     1.0000 0.62580  0.01050  0.46340  Biso   1.000  N
  C266     1.0000 0.62470  0.96290  0.46000  Biso   1.000  C
  H266     1.0000 0.62460  0.94690  0.44310  Biso   1.000  H
  N399     1.0000 0.62370  0.94280  0.48560  Biso   1.000  N
  C267     1.0000 0.87510  0.54160  0.71208  Biso   1.000  C
  H267     1.0000 0.87400  0.55630  0.69480  Biso   1.000  H
  N400     1.0000 0.87660  0.56330  0.73678  Biso   1.000  N
  C268     1.0000 0.87800  0.53010  0.75655  Biso   1.000  C
  H268     1.0000 0.87920  0.53540  0.77570  Biso   1.000  H
  N401     1.0000 0.87740  0.48780  0.74410  Biso   1.000  N
  N402     1.0000 0.87560  0.49490  0.71660  Biso   1.000  N
  N403     1.0000 0.70560  0.60340  0.79870  Biso   1.000  N
  N404     1.0000 0.69940  0.65050  0.79660  Biso   1.000  N
  C269     1.0000 0.75290  0.66690  0.78250  Biso   1.000  C
  H269     1.0000 0.76140  0.69840  0.77810  Biso   1.000  H
  N405     1.0000 0.79210  0.62980  0.77600  Biso   1.000  N
  C270     1.0000 0.76280  0.59060  0.78600  Biso   1.000  C
  H270     1.0000 0.77930  0.55990  0.78440  Biso   1.000  H
  N406     1.0000 0.70510  0.60280  0.94860  Biso   1.000  N
  N407     1.0000 0.69980  0.65040  0.95020  Biso   1.000  N
  C271     1.0000 0.75330  0.66670  0.96450  Biso   1.000  C
  H271     1.0000 0.76220  0.69830  0.96870  Biso   1.000  H
  N408     1.0000 0.79170  0.62930  0.97180  Biso   1.000  N
  C272     1.0000 0.76190  0.58980  0.96200  Biso   1.000  C
  H272     1.0000 0.77770  0.55900  0.96400  Biso   1.000  H
  N409     1.0000 0.61780  0.54780  0.84970  Biso   1.000  N
  C273     1.0000 0.64950  0.56640  0.87230  Biso   1.000  C
  H273     1.0000 0.68590  0.58710  0.87200  Biso   1.000  H
  N410     1.0000 0.61870  0.54940  0.89560  Biso   1.000  N
  C274     1.0000 0.56780  0.52040  0.88730  Biso   1.000  C
  H274     1.0000 0.53860  0.50400  0.89900  Biso   1.000  H
  N411     1.0000 0.56730  0.51940  0.85900  Biso   1.000  N
  Zn58     1.0000 0.63085  0.55975  0.93578  Biso   1.000  Zn
  Zn59     1.0000 0.63151  0.55896  0.81028  Biso   1.000  Zn
  Zn60     1.0000 0.87764  0.62826  0.75242  Biso   1.000  Zn
  C275     1.0000 0.64260  0.47030  0.97120  Biso   1.000  C
  H275     1.0000 0.68380  0.47860  0.97900  Biso   1.000  H
  N412     1.0000 0.60780  0.49580  0.95330  Biso   1.000  N
  N413     1.0000 0.55250  0.47230  0.94710  Biso   1.000  N
  C276     1.0000 0.55310  0.43220  0.96120  Biso   1.000  C
  H276     1.0000 0.52010  0.40890  0.96080  Biso   1.000  H
  N414     1.0000 0.60880  0.43100  0.97610  Biso   1.000  N
  N415     1.0000 0.60920  0.55620  0.85060  Biso   1.000  N
  C277     1.0000 0.64850  0.55580  0.87330  Biso   1.000  C
  H277     1.0000 0.69530  0.55490  0.87340  Biso   1.000  H
  N416     1.0000 0.60850  0.55700  0.89580  Biso   1.000  N
  C278     1.0000 0.54450  0.55810  0.88700  Biso   1.000  C
  H278     1.0000 0.50650  0.55900  0.89830  Biso   1.000  H
  N417     1.0000 0.54490  0.55760  0.85910  Biso   1.000  N
  C279     1.0000 0.62430  0.47790  0.00480  Biso   1.000  C
  H279     1.0000 0.62380  0.47400  0.02400  Biso   1.000  H
  N418     1.0000 0.62550  0.51980  0.99110  Biso   1.000  N
  N419     1.0000 0.62580  0.51050  0.96340  Biso   1.000  N
  C280     1.0000 0.62470  0.46290  0.96000  Biso   1.000  C
  H280     1.0000 0.62460  0.44690  0.94310  Biso   1.000  H
  N420     1.0000 0.62370  0.44280  0.98560  Biso   1.000  N
  C281     1.0000 0.87490  0.20840  0.71208  Biso   1.000  C
  H281     1.0000 0.87600  0.19370  0.69480  Biso   1.000  H
  N421     1.0000 0.87340  0.18670  0.73678  Biso   1.000  N
  C282     1.0000 0.87200  0.21990  0.75655  Biso   1.000  C
  H282     1.0000 0.87080  0.21460  0.77570  Biso   1.000  H
  N422     1.0000 0.87260  0.26220  0.74410  Biso   1.000  N
  N423     1.0000 0.87440  0.25510  0.71660  Biso   1.000  N
  N424     1.0000 0.04440  0.14660  0.79870  Biso   1.000  N
  N425     1.0000 0.05060  0.09950  0.79660  Biso   1.000  N
  C283     1.0000 0.99710  0.08310  0.78250  Biso   1.000  C
  H283     1.0000 0.98860  0.05160  0.77810  Biso   1.000  H
  N426     1.0000 0.95790  0.12020  0.77600  Biso   1.000  N
  C284     1.0000 0.98720  0.15940  0.78600  Biso   1.000  C
  H284     1.0000 0.97070  0.19010  0.78440  Biso   1.000  H
  N427     1.0000 0.04490  0.14720  0.94860  Biso   1.000  N
  N428     1.0000 0.05020  0.09960  0.95020  Biso   1.000  N
  C285     1.0000 0.99670  0.08330  0.96450  Biso   1.000  C
  H285     1.0000 0.98780  0.05170  0.96870  Biso   1.000  H
  N429     1.0000 0.95830  0.12070  0.97180  Biso   1.000  N
  C286     1.0000 0.98810  0.16020  0.96200  Biso   1.000  C
  H286     1.0000 0.97230  0.19100  0.96400  Biso   1.000  H
  N430     1.0000 0.13220  0.20220  0.84970  Biso   1.000  N
  C287     1.0000 0.10050  0.18360  0.87230  Biso   1.000  C
  H287     1.0000 0.06410  0.16290  0.87200  Biso   1.000  H
  N431     1.0000 0.13130  0.20060  0.89560  Biso   1.000  N
  C288     1.0000 0.18220  0.22960  0.88730  Biso   1.000  C
  H288     1.0000 0.21140  0.24600  0.89900  Biso   1.000  H
  N432     1.0000 0.18270  0.23060  0.85900  Biso   1.000  N
  Zn61     1.0000 0.11915  0.19025  0.93578  Biso   1.000  Zn
  Zn62     1.0000 0.11849  0.19104  0.81028  Biso   1.000  Zn
  Zn63     1.0000 0.87236  0.12174  0.75242  Biso   1.000  Zn
  C289     1.0000 0.10740  0.27970  0.97120  Biso   1.000  C
  H289     1.0000 0.06620  0.27140  0.97900  Biso   1.000  H
  N433     1.0000 0.14220  0.25420  0.95330  Biso   1.000  N
  N434     1.0000 0.19750  0.27770  0.94710  Biso   1.000  N
  C290     1.0000 0.19690  0.31780  0.96120  Biso   1.000  C
  H290     1.0000 0.22990  0.34110  0.96080  Biso   1.000  H
  N435     1.0000 0.14120  0.31900  0.97610  Biso   1.000  N
  N436     1.0000 0.14080  0.19380  0.85060  Biso   1.000  N
  C291     1.0000 0.10150  0.19420  0.87330  Biso   1.000  C
  H291     1.0000 0.05470  0.19510  0.87340  Biso   1.000  H
  N437     1.0000 0.14150  0.19300  0.89580  Biso   1.000  N
  C292     1.0000 0.20550  0.19190  0.88700  Biso   1.000  C
  H292     1.0000 0.24350  0.19100  0.89830  Biso   1.000  H
  N438     1.0000 0.20510  0.19240  0.85910  Biso   1.000  N
  C293     1.0000 0.12570  0.27210  0.00480  Biso   1.000  C
  H293     1.0000 0.12620  0.27600  0.02400  Biso   1.000  H
  N439     1.0000 0.12450  0.23020  0.99110  Biso   1.000  N
  N440     1.0000 0.12420  0.23950  0.96340  Biso   1.000  N
  C294     1.0000 0.12530  0.28710  0.96000  Biso   1.000  C
  H294     1.0000 0.12540  0.30310  0.94310  Biso   1.000  H
  N441     1.0000 0.12630  0.30720  0.98560  Biso   1.000  N
  C295     1.0000 0.87490  0.70840  0.21208  Biso   1.000  C
  H295     1.0000 0.87600  0.69370  0.19480  Biso   1.000  H
  N442     1.0000 0.87340  0.68670  0.23678  Biso   1.000  N
  C296     1.0000 0.87200  0.71990  0.25655  Biso   1.000  C
  H296     1.0000 0.87080  0.71460  0.27570  Biso   1.000  H
  N443     1.0000 0.87260  0.76220  0.24410  Biso   1.000  N
  N444     1.0000 0.87440  0.75510  0.21660  Biso   1.000  N
  N445     1.0000 0.04440  0.64660  0.29870  Biso   1.000  N
  N446     1.0000 0.05060  0.59950  0.29660  Biso   1.000  N
  C297     1.0000 0.99710  0.58310  0.28250  Biso   1.000  C
  H297     1.0000 0.98860  0.55160  0.27810  Biso   1.000  H
  N447     1.0000 0.95790  0.62020  0.27600  Biso   1.000  N
  C298     1.0000 0.98720  0.65940  0.28600  Biso   1.000  C
  H298     1.0000 0.97070  0.69010  0.28440  Biso   1.000  H
  N448     1.0000 0.04490  0.64720  0.44860  Biso   1.000  N
  N449     1.0000 0.05020  0.59960  0.45020  Biso   1.000  N
  C299     1.0000 0.99670  0.58330  0.46450  Biso   1.000  C
  H299     1.0000 0.98780  0.55170  0.46870  Biso   1.000  H
  N450     1.0000 0.95830  0.62070  0.47180  Biso   1.000  N
  C300     1.0000 0.98810  0.66020  0.46200  Biso   1.000  C
  H300     1.0000 0.97230  0.69100  0.46400  Biso   1.000  H
  N451     1.0000 0.13220  0.70220  0.34970  Biso   1.000  N
  C301     1.0000 0.10050  0.68360  0.37230  Biso   1.000  C
  H301     1.0000 0.06410  0.66290  0.37200  Biso   1.000  H
  N452     1.0000 0.13130  0.70060  0.39560  Biso   1.000  N
  C302     1.0000 0.18220  0.72960  0.38730  Biso   1.000  C
  H302     1.0000 0.21140  0.74600  0.39900  Biso   1.000  H
  N453     1.0000 0.18270  0.73060  0.35900  Biso   1.000  N
  Zn64     1.0000 0.11915  0.69025  0.43578  Biso   1.000  Zn
  Zn65     1.0000 0.11849  0.69104  0.31028  Biso   1.000  Zn
  Zn66     1.0000 0.87236  0.62174  0.25242  Biso   1.000  Zn
  C303     1.0000 0.10740  0.77970  0.47120  Biso   1.000  C
  H303     1.0000 0.06620  0.77140  0.47900  Biso   1.000  H
  N454     1.0000 0.14220  0.75420  0.45330  Biso   1.000  N
  N455     1.0000 0.19750  0.77770  0.44710  Biso   1.000  N
  C304     1.0000 0.19690  0.81780  0.46120  Biso   1.000  C
  H304     1.0000 0.22990  0.84110  0.46080  Biso   1.000  H
  N456     1.0000 0.14120  0.81900  0.47610  Biso   1.000  N
  N457     1.0000 0.14080  0.69380  0.35060  Biso   1.000  N
  C305     1.0000 0.10150  0.69420  0.37330  Biso   1.000  C
  H305     1.0000 0.05470  0.69510  0.37340  Biso   1.000  H
  N458     1.0000 0.14150  0.69300  0.39580  Biso   1.000  N
  C306     1.0000 0.20550  0.69190  0.38700  Biso   1.000  C
  H306     1.0000 0.24350  0.69100  0.39830  Biso   1.000  H
  N459     1.0000 0.20510  0.69240  0.35910  Biso   1.000  N
  C307     1.0000 0.12570  0.77210  0.50480  Biso   1.000  C
  H307     1.0000 0.12620  0.77600  0.52400  Biso   1.000  H
  N460     1.0000 0.12450  0.73020  0.49110  Biso   1.000  N
  N461     1.0000 0.12420  0.73950  0.46340  Biso   1.000  N
  C308     1.0000 0.12530  0.78710  0.46000  Biso   1.000  C
  H308     1.0000 0.12540  0.80310  0.44310  Biso   1.000  H
  N462     1.0000 0.12630  0.80720  0.48560  Biso   1.000  N
  C309     1.0000 0.37490  0.20840  0.21208  Biso   1.000  C
  H309     1.0000 0.37600  0.19370  0.19480  Biso   1.000  H
  N463     1.0000 0.37340  0.18670  0.23678  Biso   1.000  N
  C310     1.0000 0.37200  0.21990  0.25655  Biso   1.000  C
  H310     1.0000 0.37080  0.21460  0.27570  Biso   1.000  H
  N464     1.0000 0.37260  0.26220  0.24410  Biso   1.000  N
  N465     1.0000 0.37440  0.25510  0.21660  Biso   1.000  N
  N466     1.0000 0.54440  0.14660  0.29870  Biso   1.000  N
  N467     1.0000 0.55060  0.09950  0.29660  Biso   1.000  N
  C311     1.0000 0.49710  0.08310  0.28250  Biso   1.000  C
  H311     1.0000 0.48860  0.05160  0.27810  Biso   1.000  H
  N468     1.0000 0.45790  0.12020  0.27600  Biso   1.000  N
  C312     1.0000 0.48720  0.15940  0.28600  Biso   1.000  C
  H312     1.0000 0.47070  0.19010  0.28440  Biso   1.000  H
  N469     1.0000 0.54490  0.14720  0.44860  Biso   1.000  N
  N470     1.0000 0.55020  0.09960  0.45020  Biso   1.000  N
  C313     1.0000 0.49670  0.08330  0.46450  Biso   1.000  C
  H313     1.0000 0.48780  0.05170  0.46870  Biso   1.000  H
  N471     1.0000 0.45830  0.12070  0.47180  Biso   1.000  N
  C314     1.0000 0.48810  0.16020  0.46200  Biso   1.000  C
  H314     1.0000 0.47230  0.19100  0.46400  Biso   1.000  H
  N472     1.0000 0.63220  0.20220  0.34970  Biso   1.000  N
  C315     1.0000 0.60050  0.18360  0.37230  Biso   1.000  C
  H315     1.0000 0.56410  0.16290  0.37200  Biso   1.000  H
  N473     1.0000 0.63130  0.20060  0.39560  Biso   1.000  N
  C316     1.0000 0.68220  0.22960  0.38730  Biso   1.000  C
  H316     1.0000 0.71140  0.24600  0.39900  Biso   1.000  H
  N474     1.0000 0.68270  0.23060  0.35900  Biso   1.000  N
  Zn67     1.0000 0.61915  0.19025  0.43578  Biso   1.000  Zn
  Zn68     1.0000 0.61849  0.19104  0.31028  Biso   1.000  Zn
  Zn69     1.0000 0.37236  0.12174  0.25242  Biso   1.000  Zn
  C317     1.0000 0.60740  0.27970  0.47120  Biso   1.000  C
  H317     1.0000 0.56620  0.27140  0.47900  Biso   1.000  H
  N475     1.0000 0.64220  0.25420  0.45330  Biso   1.000  N
  N476     1.0000 0.69750  0.27770  0.44710  Biso   1.000  N
  C318     1.0000 0.69690  0.31780  0.46120  Biso   1.000  C
  H318     1.0000 0.72990  0.34110  0.46080  Biso   1.000  H
  N477     1.0000 0.64120  0.31900  0.47610  Biso   1.000  N
  N478     1.0000 0.64080  0.19380  0.35060  Biso   1.000  N
  C319     1.0000 0.60150  0.19420  0.37330  Biso   1.000  C
  H319     1.0000 0.55470  0.19510  0.37340  Biso   1.000  H
  N479     1.0000 0.64150  0.19300  0.39580  Biso   1.000  N
  C320     1.0000 0.70550  0.19190  0.38700  Biso   1.000  C
  H320     1.0000 0.74350  0.19100  0.39830  Biso   1.000  H
  N480     1.0000 0.70510  0.19240  0.35910  Biso   1.000  N
  C321     1.0000 0.62570  0.27210  0.50480  Biso   1.000  C
  H321     1.0000 0.62620  0.27600  0.52400  Biso   1.000  H
  N481     1.0000 0.62450  0.23020  0.49110  Biso   1.000  N
  N482     1.0000 0.62420  0.23950  0.46340  Biso   1.000  N
  C322     1.0000 0.62530  0.28710  0.46000  Biso   1.000  C
  H322     1.0000 0.62540  0.30310  0.44310  Biso   1.000  H
  N483     1.0000 0.62630  0.30720  0.48560  Biso   1.000  N
  C323     1.0000 0.37490  0.70840  0.71208  Biso   1.000  C
  H323     1.0000 0.37600  0.69370  0.69480  Biso   1.000  H
  N484     1.0000 0.37340  0.68670  0.73678  Biso   1.000  N
  C324     1.0000 0.37200  0.71990  0.75655  Biso   1.000  C
  H324     1.0000 0.37080  0.71460  0.77570  Biso   1.000  H
  N485     1.0000 0.37260  0.76220  0.74410  Biso   1.000  N
  N486     1.0000 0.37440  0.75510  0.71660  Biso   1.000  N
  N487     1.0000 0.54440  0.64660  0.79870  Biso   1.000  N
  N488     1.0000 0.55060  0.59950  0.79660  Biso   1.000  N
  C325     1.0000 0.49710  0.58310  0.78250  Biso   1.000  C
  H325     1.0000 0.48860  0.55160  0.77810  Biso   1.000  H
  N489     1.0000 0.45790  0.62020  0.77600  Biso   1.000  N
  C326     1.0000 0.48720  0.65940  0.78600  Biso   1.000  C
  H326     1.0000 0.47070  0.69010  0.78440  Biso   1.000  H
  N490     1.0000 0.54490  0.64720  0.94860  Biso   1.000  N
  N491     1.0000 0.55020  0.59960  0.95020  Biso   1.000  N
  C327     1.0000 0.49670  0.58330  0.96450  Biso   1.000  C
  H327     1.0000 0.48780  0.55170  0.96870  Biso   1.000  H
  N492     1.0000 0.45830  0.62070  0.97180  Biso   1.000  N
  C328     1.0000 0.48810  0.66020  0.96200  Biso   1.000  C
  H328     1.0000 0.47230  0.69100  0.96400  Biso   1.000  H
  N493     1.0000 0.63220  0.70220  0.84970  Biso   1.000  N
  C329     1.0000 0.60050  0.68360  0.87230  Biso   1.000  C
  H329     1.0000 0.56410  0.66290  0.87200  Biso   1.000  H
  N494     1.0000 0.63130  0.70060  0.89560  Biso   1.000  N
  C330     1.0000 0.68220  0.72960  0.88730  Biso   1.000  C
  H330     1.0000 0.71140  0.74600  0.89900  Biso   1.000  H
  N495     1.0000 0.68270  0.73060  0.85900  Biso   1.000  N
  Zn70     1.0000 0.61915  0.69025  0.93578  Biso   1.000  Zn
  Zn71     1.0000 0.61849  0.69104  0.81028  Biso   1.000  Zn
  Zn72     1.0000 0.37236  0.62174  0.75242  Biso   1.000  Zn
  C331     1.0000 0.60740  0.77970  0.97120  Biso   1.000  C
  H331     1.0000 0.56620  0.77140  0.97900  Biso   1.000  H
  N496     1.0000 0.64220  0.75420  0.95330  Biso   1.000  N
  N497     1.0000 0.69750  0.77770  0.94710  Biso   1.000  N
  C332     1.0000 0.69690  0.81780  0.96120  Biso   1.000  C
  H332     1.0000 0.72990  0.84110  0.96080  Biso   1.000  H
  N498     1.0000 0.64120  0.81900  0.97610  Biso   1.000  N
  N499     1.0000 0.64080  0.69380  0.85060  Biso   1.000  N
  C333     1.0000 0.60150  0.69420  0.87330  Biso   1.000  C
  H333     1.0000 0.55470  0.69510  0.87340  Biso   1.000  H
  N500     1.0000 0.64150  0.69300  0.89580  Biso   1.000  N
  C334     1.0000 0.70550  0.69190  0.88700  Biso   1.000  C
  H334     1.0000 0.74350  0.69100  0.89830  Biso   1.000  H
  N501     1.0000 0.70510  0.69240  0.85910  Biso   1.000  N
  C335     1.0000 0.62570  0.77210  0.00480  Biso   1.000  C
  H335     1.0000 0.62620  0.77600  0.02400  Biso   1.000  H
  N502     1.0000 0.62450  0.73020  0.99110  Biso   1.000  N
  N503     1.0000 0.62420  0.73950  0.96340  Biso   1.000  N
  C336     1.0000 0.62530  0.78710  0.96000  Biso   1.000  C
  H336     1.0000 0.62540  0.80310  0.94310  Biso   1.000  H
  N504     1.0000 0.62630  0.80720  0.98560  Biso   1.000  N
  C337     1.0000 0.87490  0.04160  0.53792  Biso   1.000  C
  H337     1.0000 0.87600  0.05630  0.55520  Biso   1.000  H
  N505     1.0000 0.87340  0.06330  0.51322  Biso   1.000  N
  C338     1.0000 0.87200  0.03010  0.49345  Biso   1.000  C
  H338     1.0000 0.87080  0.03540  0.47430  Biso   1.000  H
  N506     1.0000 0.87260  0.98780  0.50590  Biso   1.000  N
  N507     1.0000 0.87440  0.99490  0.53340  Biso   1.000  N
  N508     1.0000 0.04440  0.10340  0.45130  Biso   1.000  N
  N509     1.0000 0.05060  0.15050  0.45340  Biso   1.000  N
  C339     1.0000 0.99710  0.16690  0.46750  Biso   1.000  C
  H339     1.0000 0.98860  0.19840  0.47190  Biso   1.000  H
  N510     1.0000 0.95790  0.12980  0.47400  Biso   1.000  N
  C340     1.0000 0.98720  0.09060  0.46400  Biso   1.000  C
  H340     1.0000 0.97070  0.05990  0.46560  Biso   1.000  H
  N511     1.0000 0.04490  0.10280  0.30140  Biso   1.000  N
  N512     1.0000 0.05020  0.15040  0.29980  Biso   1.000  N
  C341     1.0000 0.99670  0.16670  0.28550  Biso   1.000  C
  H341     1.0000 0.98780  0.19830  0.28130  Biso   1.000  H
  N513     1.0000 0.95830  0.12930  0.27820  Biso   1.000  N
  C342     1.0000 0.98810  0.08980  0.28800  Biso   1.000  C
  H342     1.0000 0.97230  0.05900  0.28600  Biso   1.000  H
  N514     1.0000 0.13220  0.04780  0.40030  Biso   1.000  N
  C343     1.0000 0.10050  0.06640  0.37770  Biso   1.000  C
  H343     1.0000 0.06410  0.08710  0.37800  Biso   1.000  H
  N515     1.0000 0.13130  0.04940  0.35440  Biso   1.000  N
  C344     1.0000 0.18220  0.02040  0.36270  Biso   1.000  C
  H344     1.0000 0.21140  0.00400  0.35100  Biso   1.000  H
  N516     1.0000 0.18270  0.01940  0.39100  Biso   1.000  N
  Zn73     1.0000 0.11915  0.05975  0.31422  Biso   1.000  Zn
  Zn74     1.0000 0.11849  0.05896  0.43972  Biso   1.000  Zn
  Zn75     1.0000 0.87236  0.12826  0.49758  Biso   1.000  Zn
  C345     1.0000 0.10740  0.97030  0.27880  Biso   1.000  C
  H345     1.0000 0.06620  0.97860  0.27100  Biso   1.000  H
  N517     1.0000 0.14220  0.99580  0.29670  Biso   1.000  N
  N518     1.0000 0.19750  0.97230  0.30290  Biso   1.000  N
  C346     1.0000 0.19690  0.93220  0.28880  Biso   1.000  C
  H346     1.0000 0.22990  0.90890  0.28920  Biso   1.000  H
  N519     1.0000 0.14120  0.93100  0.27390  Biso   1.000  N
  N520     1.0000 0.14080  0.05620  0.39940  Biso   1.000  N
  C347     1.0000 0.10150  0.05580  0.37670  Biso   1.000  C
  H347     1.0000 0.05470  0.05490  0.37660  Biso   1.000  H
  N521     1.0000 0.14150  0.05700  0.35420  Biso   1.000  N
  C348     1.0000 0.20550  0.05810  0.36300  Biso   1.000  C
  H348     1.0000 0.24350  0.05900  0.35170  Biso   1.000  H
  N522     1.0000 0.20510  0.05760  0.39090  Biso   1.000  N
  C349     1.0000 0.12570  0.97790  0.24520  Biso   1.000  C
  H349     1.0000 0.12620  0.97400  0.22600  Biso   1.000  H
  N523     1.0000 0.12450  0.01980  0.25890  Biso   1.000  N
  N524     1.0000 0.12420  0.01050  0.28660  Biso   1.000  N
  C350     1.0000 0.12530  0.96290  0.29000  Biso   1.000  C
  H350     1.0000 0.12540  0.94690  0.30690  Biso   1.000  H
  N525     1.0000 0.12630  0.94280  0.26440  Biso   1.000  N
  C351     1.0000 0.87490  0.54160  0.03792  Biso   1.000  C
  H351     1.0000 0.87600  0.55630  0.05520  Biso   1.000  H
  N526     1.0000 0.87340  0.56330  0.01322  Biso   1.000  N
  C352     1.0000 0.87200  0.53010  0.99345  Biso   1.000  C
  H352     1.0000 0.87080  0.53540  0.97430  Biso   1.000  H
  N527     1.0000 0.87260  0.48780  0.00590  Biso   1.000  N
  N528     1.0000 0.87440  0.49490  0.03340  Biso   1.000  N
  N529     1.0000 0.04440  0.60340  0.95130  Biso   1.000  N
  N530     1.0000 0.05060  0.65050  0.95340  Biso   1.000  N
  C353     1.0000 0.99710  0.66690  0.96750  Biso   1.000  C
  H353     1.0000 0.98860  0.69840  0.97190  Biso   1.000  H
  N531     1.0000 0.95790  0.62980  0.97400  Biso   1.000  N
  C354     1.0000 0.98720  0.59060  0.96400  Biso   1.000  C
  H354     1.0000 0.97070  0.55990  0.96560  Biso   1.000  H
  N532     1.0000 0.04490  0.60280  0.80140  Biso   1.000  N
  N533     1.0000 0.05020  0.65040  0.79980  Biso   1.000  N
  C355     1.0000 0.99670  0.66670  0.78550  Biso   1.000  C
  H355     1.0000 0.98780  0.69830  0.78130  Biso   1.000  H
  N534     1.0000 0.95830  0.62930  0.77820  Biso   1.000  N
  C356     1.0000 0.98810  0.58980  0.78800  Biso   1.000  C
  H356     1.0000 0.97230  0.55900  0.78600  Biso   1.000  H
  N535     1.0000 0.13220  0.54780  0.90030  Biso   1.000  N
  C357     1.0000 0.10050  0.56640  0.87770  Biso   1.000  C
  H357     1.0000 0.06410  0.58710  0.87800  Biso   1.000  H
  N536     1.0000 0.13130  0.54940  0.85440  Biso   1.000  N
  C358     1.0000 0.18220  0.52040  0.86270  Biso   1.000  C
  H358     1.0000 0.21140  0.50400  0.85100  Biso   1.000  H
  N537     1.0000 0.18270  0.51940  0.89100  Biso   1.000  N
  Zn76     1.0000 0.11915  0.55975  0.81422  Biso   1.000  Zn
  Zn77     1.0000 0.11849  0.55896  0.93972  Biso   1.000  Zn
  Zn78     1.0000 0.87236  0.62826  0.99758  Biso   1.000  Zn
  C359     1.0000 0.10740  0.47030  0.77880  Biso   1.000  C
  H359     1.0000 0.06620  0.47860  0.77100  Biso   1.000  H
  N538     1.0000 0.14220  0.49580  0.79670  Biso   1.000  N
  N539     1.0000 0.19750  0.47230  0.80290  Biso   1.000  N
  C360     1.0000 0.19690  0.43220  0.78880  Biso   1.000  C
  H360     1.0000 0.22990  0.40890  0.78920  Biso   1.000  H
  N540     1.0000 0.14120  0.43100  0.77390  Biso   1.000  N
  N541     1.0000 0.14080  0.55620  0.89940  Biso   1.000  N
  C361     1.0000 0.10150  0.55580  0.87670  Biso   1.000  C
  H361     1.0000 0.05470  0.55490  0.87660  Biso   1.000  H
  N542     1.0000 0.14150  0.55700  0.85420  Biso   1.000  N
  C362     1.0000 0.20550  0.55810  0.86300  Biso   1.000  C
  H362     1.0000 0.24350  0.55900  0.85170  Biso   1.000  H
  N543     1.0000 0.20510  0.55760  0.89090  Biso   1.000  N
  C363     1.0000 0.12570  0.47790  0.74520  Biso   1.000  C
  H363     1.0000 0.12620  0.47400  0.72600  Biso   1.000  H
  N544     1.0000 0.12450  0.51980  0.75890  Biso   1.000  N
  N545     1.0000 0.12420  0.51050  0.78660  Biso   1.000  N
  C364     1.0000 0.12530  0.46290  0.79000  Biso   1.000  C
  H364     1.0000 0.12540  0.44690  0.80690  Biso   1.000  H
  N546     1.0000 0.12630  0.44280  0.76440  Biso   1.000  N
  C365     1.0000 0.37490  0.04160  0.03792  Biso   1.000  C
  H365     1.0000 0.37600  0.05630  0.05520  Biso   1.000  H
  N547     1.0000 0.37340  0.06330  0.01322  Biso   1.000  N
  C366     1.0000 0.37200  0.03010  0.99345  Biso   1.000  C
  H366     1.0000 0.37080  0.03540  0.97430  Biso   1.000  H
  N548     1.0000 0.37260  0.98780  0.00590  Biso   1.000  N
  N549     1.0000 0.37440  0.99490  0.03340  Biso   1.000  N
  N550     1.0000 0.54440  0.10340  0.95130  Biso   1.000  N
  N551     1.0000 0.55060  0.15050  0.95340  Biso   1.000  N
  C367     1.0000 0.49710  0.16690  0.96750  Biso   1.000  C
  H367     1.0000 0.48860  0.19840  0.97190  Biso   1.000  H
  N552     1.0000 0.45790  0.12980  0.97400  Biso   1.000  N
  C368     1.0000 0.48720  0.09060  0.96400  Biso   1.000  C
  H368     1.0000 0.47070  0.05990  0.96560  Biso   1.000  H
  N553     1.0000 0.54490  0.10280  0.80140  Biso   1.000  N
  N554     1.0000 0.55020  0.15040  0.79980  Biso   1.000  N
  C369     1.0000 0.49670  0.16670  0.78550  Biso   1.000  C
  H369     1.0000 0.48780  0.19830  0.78130  Biso   1.000  H
  N555     1.0000 0.45830  0.12930  0.77820  Biso   1.000  N
  C370     1.0000 0.48810  0.08980  0.78800  Biso   1.000  C
  H370     1.0000 0.47230  0.05900  0.78600  Biso   1.000  H
  N556     1.0000 0.63220  0.04780  0.90030  Biso   1.000  N
  C371     1.0000 0.60050  0.06640  0.87770  Biso   1.000  C
  H371     1.0000 0.56410  0.08710  0.87800  Biso   1.000  H
  N557     1.0000 0.63130  0.04940  0.85440  Biso   1.000  N
  C372     1.0000 0.68220  0.02040  0.86270  Biso   1.000  C
  H372     1.0000 0.71140  0.00400  0.85100  Biso   1.000  H
  N558     1.0000 0.68270  0.01940  0.89100  Biso   1.000  N
  Zn79     1.0000 0.61915  0.05975  0.81422  Biso   1.000  Zn
  Zn80     1.0000 0.61849  0.05896  0.93972  Biso   1.000  Zn
  Zn81     1.0000 0.37236  0.12826  0.99758  Biso   1.000  Zn
  C373     1.0000 0.60740  0.97030  0.77880  Biso   1.000  C
  H373     1.0000 0.56620  0.97860  0.77100  Biso   1.000  H
  N559     1.0000 0.64220  0.99580  0.79670  Biso   1.000  N
  N560     1.0000 0.69750  0.97230  0.80290  Biso   1.000  N
  C374     1.0000 0.69690  0.93220  0.78880  Biso   1.000  C
  H374     1.0000 0.72990  0.90890  0.78920  Biso   1.000  H
  N561     1.0000 0.64120  0.93100  0.77390  Biso   1.000  N
  N562     1.0000 0.64080  0.05620  0.89940  Biso   1.000  N
  C375     1.0000 0.60150  0.05580  0.87670  Biso   1.000  C
  H375     1.0000 0.55470  0.05490  0.87660  Biso   1.000  H
  N563     1.0000 0.64150  0.05700  0.85420  Biso   1.000  N
  C376     1.0000 0.70550  0.05810  0.86300  Biso   1.000  C
  H376     1.0000 0.74350  0.05900  0.85170  Biso   1.000  H
  N564     1.0000 0.70510  0.05760  0.89090  Biso   1.000  N
  C377     1.0000 0.62570  0.97790  0.74520  Biso   1.000  C
  H377     1.0000 0.62620  0.97400  0.72600  Biso   1.000  H
  N565     1.0000 0.62450  0.01980  0.75890  Biso   1.000  N
  N566     1.0000 0.62420  0.01050  0.78660  Biso   1.000  N
  C378     1.0000 0.62530  0.96290  0.79000  Biso   1.000  C
  H378     1.0000 0.62540  0.94690  0.80690  Biso   1.000  H
  N567     1.0000 0.62630  0.94280  0.76440  Biso   1.000  N
  C379     1.0000 0.37490  0.54160  0.53792  Biso   1.000  C
  H379     1.0000 0.37600  0.55630  0.55520  Biso   1.000  H
  N568     1.0000 0.37340  0.56330  0.51322  Biso   1.000  N
  C380     1.0000 0.37200  0.53010  0.49345  Biso   1.000  C
  H380     1.0000 0.37080  0.53540  0.47430  Biso   1.000  H
  N569     1.0000 0.37260  0.48780  0.50590  Biso   1.000  N
  N570     1.0000 0.37440  0.49490  0.53340  Biso   1.000  N
  N571     1.0000 0.54440  0.60340  0.45130  Biso   1.000  N
  N572     1.0000 0.55060  0.65050  0.45340  Biso   1.000  N
  C381     1.0000 0.49710  0.66690  0.46750  Biso   1.000  C
  H381     1.0000 0.48860  0.69840  0.47190  Biso   1.000  H
  N573     1.0000 0.45790  0.62980  0.47400  Biso   1.000  N
  C382     1.0000 0.48720  0.59060  0.46400  Biso   1.000  C
  H382     1.0000 0.47070  0.55990  0.46560  Biso   1.000  H
  N574     1.0000 0.54490  0.60280  0.30140  Biso   1.000  N
  N575     1.0000 0.55020  0.65040  0.29980  Biso   1.000  N
  C383     1.0000 0.49670  0.66670  0.28550  Biso   1.000  C
  H383     1.0000 0.48780  0.69830  0.28130  Biso   1.000  H
  N576     1.0000 0.45830  0.62930  0.27820  Biso   1.000  N
  C384     1.0000 0.48810  0.58980  0.28800  Biso   1.000  C
  H384     1.0000 0.47230  0.55900  0.28600  Biso   1.000  H
  N577     1.0000 0.63220  0.54780  0.40030  Biso   1.000  N
  C385     1.0000 0.60050  0.56640  0.37770  Biso   1.000  C
  H385     1.0000 0.56410  0.58710  0.37800  Biso   1.000  H
  N578     1.0000 0.63130  0.54940  0.35440  Biso   1.000  N
  C386     1.0000 0.68220  0.52040  0.36270  Biso   1.000  C
  H386     1.0000 0.71140  0.50400  0.35100  Biso   1.000  H
  N579     1.0000 0.68270  0.51940  0.39100  Biso   1.000  N
  Zn82     1.0000 0.61915  0.55975  0.31422  Biso   1.000  Zn
  Zn83     1.0000 0.61849  0.55896  0.43972  Biso   1.000  Zn
  Zn84     1.0000 0.37236  0.62826  0.49758  Biso   1.000  Zn
  C387     1.0000 0.60740  0.47030  0.27880  Biso   1.000  C
  H387     1.0000 0.56620  0.47860  0.27100  Biso   1.000  H
  N580     1.0000 0.64220  0.49580  0.29670  Biso   1.000  N
  N581     1.0000 0.69750  0.47230  0.30290  Biso   1.000  N
  C388     1.0000 0.69690  0.43220  0.28880  Biso   1.000  C
  H388     1.0000 0.72990  0.40890  0.28920  Biso   1.000  H
  N582     1.0000 0.64120  0.43100  0.27390  Biso   1.000  N
  N583     1.0000 0.64080  0.55620  0.39940  Biso   1.000  N
  C389     1.0000 0.60150  0.55580  0.37670  Biso   1.000  C
  H389     1.0000 0.55470  0.55490  0.37660  Biso   1.000  H
  N584     1.0000 0.64150  0.55700  0.35420  Biso   1.000  N
  C390     1.0000 0.70550  0.55810  0.36300  Biso   1.000  C
  H390     1.0000 0.74350  0.55900  0.35170  Biso   1.000  H
  N585     1.0000 0.70510  0.55760  0.39090  Biso   1.000  N
  C391     1.0000 0.62570  0.47790  0.24520  Biso   1.000  C
  H391     1.0000 0.62620  0.47400  0.22600  Biso   1.000  H
  N586     1.0000 0.62450  0.51980  0.25890  Biso   1.000  N
  N587     1.0000 0.62420  0.51050  0.28660  Biso   1.000  N
  C392     1.0000 0.62530  0.46290  0.29000  Biso   1.000  C
  H392     1.0000 0.62540  0.44690  0.30690  Biso   1.000  H
  N588     1.0000 0.62630  0.44280  0.26440  Biso   1.000  N
  C393     1.0000 0.37510  0.20840  0.53792  Biso   1.000  C
  H393     1.0000 0.37400  0.19370  0.55520  Biso   1.000  H
  N589     1.0000 0.37660  0.18670  0.51322  Biso   1.000  N
  C394     1.0000 0.37800  0.21990  0.49345  Biso   1.000  C
  H394     1.0000 0.37920  0.21460  0.47430  Biso   1.000  H
  N590     1.0000 0.37740  0.26220  0.50590  Biso   1.000  N
  N591     1.0000 0.37560  0.25510  0.53340  Biso   1.000  N
  N592     1.0000 0.20560  0.14660  0.45130  Biso   1.000  N
  N593     1.0000 0.19940  0.09950  0.45340  Biso   1.000  N
  C395     1.0000 0.25290  0.08310  0.46750  Biso   1.000  C
  H395     1.0000 0.26140  0.05160  0.47190  Biso   1.000  H
  N594     1.0000 0.29210  0.12020  0.47400  Biso   1.000  N
  C396     1.0000 0.26280  0.15940  0.46400  Biso   1.000  C
  H396     1.0000 0.27930  0.19010  0.46560  Biso   1.000  H
  N595     1.0000 0.20510  0.14720  0.30140  Biso   1.000  N
  N596     1.0000 0.19980  0.09960  0.29980  Biso   1.000  N
  C397     1.0000 0.25330  0.08330  0.28550  Biso   1.000  C
  H397     1.0000 0.26220  0.05170  0.28130  Biso   1.000  H
  N597     1.0000 0.29170  0.12070  0.27820  Biso   1.000  N
  C398     1.0000 0.26190  0.16020  0.28800  Biso   1.000  C
  H398     1.0000 0.27770  0.19100  0.28600  Biso   1.000  H
  N598     1.0000 0.11780  0.20220  0.40030  Biso   1.000  N
  C399     1.0000 0.14950  0.18360  0.37770  Biso   1.000  C
  H399     1.0000 0.18590  0.16290  0.37800  Biso   1.000  H
  N599     1.0000 0.11870  0.20060  0.35440  Biso   1.000  N
  C400     1.0000 0.06780  0.22960  0.36270  Biso   1.000  C
  H400     1.0000 0.03860  0.24600  0.35100  Biso   1.000  H
  N600     1.0000 0.06730  0.23060  0.39100  Biso   1.000  N
  Zn85     1.0000 0.13085  0.19025  0.31422  Biso   1.000  Zn
  Zn86     1.0000 0.13151  0.19104  0.43972  Biso   1.000  Zn
  Zn87     1.0000 0.37764  0.12174  0.49758  Biso   1.000  Zn
  C401     1.0000 0.14260  0.27970  0.27880  Biso   1.000  C
  H401     1.0000 0.18380  0.27140  0.27100  Biso   1.000  H
  N601     1.0000 0.10780  0.25420  0.29670  Biso   1.000  N
  N602     1.0000 0.05250  0.27770  0.30290  Biso   1.000  N
  C402     1.0000 0.05310  0.31780  0.28880  Biso   1.000  C
  H402     1.0000 0.02010  0.34110  0.28920  Biso   1.000  H
  N603     1.0000 0.10880  0.31900  0.27390  Biso   1.000  N
  N604     1.0000 0.10920  0.19380  0.39940  Biso   1.000  N
  C403     1.0000 0.14850  0.19420  0.37670  Biso   1.000  C
  H403     1.0000 0.19530  0.19510  0.37660  Biso   1.000  H
  N605     1.0000 0.10850  0.19300  0.35420  Biso   1.000  N
  C404     1.0000 0.04450  0.19190  0.36300  Biso   1.000  C
  H404     1.0000 0.00650  0.19100  0.35170  Biso   1.000  H
  N606     1.0000 0.04490  0.19240  0.39090  Biso   1.000  N
  C405     1.0000 0.12430  0.27210  0.24520  Biso   1.000  C
  H405     1.0000 0.12380  0.27600  0.22600  Biso   1.000  H
  N607     1.0000 0.12550  0.23020  0.25890  Biso   1.000  N
  N608     1.0000 0.12580  0.23950  0.28660  Biso   1.000  N
  C406     1.0000 0.12470  0.28710  0.29000  Biso   1.000  C
  H406     1.0000 0.12460  0.30310  0.30690  Biso   1.000  H
  N609     1.0000 0.12370  0.30720  0.26440  Biso   1.000  N
  C407     1.0000 0.37510  0.70840  0.03792  Biso   1.000  C
  H407     1.0000 0.37400  0.69370  0.05520  Biso   1.000  H
  N610     1.0000 0.37660  0.68670  0.01322  Biso   1.000  N
  C408     1.0000 0.37800  0.71990  0.99345  Biso   1.000  C
  H408     1.0000 0.37920  0.71460  0.97430  Biso   1.000  H
  N611     1.0000 0.37740  0.76220  0.00590  Biso   1.000  N
  N612     1.0000 0.37560  0.75510  0.03340  Biso   1.000  N
  N613     1.0000 0.20560  0.64660  0.95130  Biso   1.000  N
  N614     1.0000 0.19940  0.59950  0.95340  Biso   1.000  N
  C409     1.0000 0.25290  0.58310  0.96750  Biso   1.000  C
  H409     1.0000 0.26140  0.55160  0.97190  Biso   1.000  H
  N615     1.0000 0.29210  0.62020  0.97400  Biso   1.000  N
  C410     1.0000 0.26280  0.65940  0.96400  Biso   1.000  C
  H410     1.0000 0.27930  0.69010  0.96560  Biso   1.000  H
  N616     1.0000 0.20510  0.64720  0.80140  Biso   1.000  N
  N617     1.0000 0.19980  0.59960  0.79980  Biso   1.000  N
  C411     1.0000 0.25330  0.58330  0.78550  Biso   1.000  C
  H411     1.0000 0.26220  0.55170  0.78130  Biso   1.000  H
  N618     1.0000 0.29170  0.62070  0.77820  Biso   1.000  N
  C412     1.0000 0.26190  0.66020  0.78800  Biso   1.000  C
  H412     1.0000 0.27770  0.69100  0.78600  Biso   1.000  H
  N619     1.0000 0.11780  0.70220  0.90030  Biso   1.000  N
  C413     1.0000 0.14950  0.68360  0.87770  Biso   1.000  C
  H413     1.0000 0.18590  0.66290  0.87800  Biso   1.000  H
  N620     1.0000 0.11870  0.70060  0.85440  Biso   1.000  N
  C414     1.0000 0.06780  0.72960  0.86270  Biso   1.000  C
  H414     1.0000 0.03860  0.74600  0.85100  Biso   1.000  H
  N621     1.0000 0.06730  0.73060  0.89100  Biso   1.000  N
  Zn88     1.0000 0.13085  0.69025  0.81422  Biso   1.000  Zn
  Zn89     1.0000 0.13151  0.69104  0.93972  Biso   1.000  Zn
  Zn90     1.0000 0.37764  0.62174  0.99758  Biso   1.000  Zn
  C415     1.0000 0.14260  0.77970  0.77880  Biso   1.000  C
  H415     1.0000 0.18380  0.77140  0.77100  Biso   1.000  H
  N622     1.0000 0.10780  0.75420  0.79670  Biso   1.000  N
  N623     1.0000 0.05250  0.77770  0.80290  Biso   1.000  N
  C416     1.0000 0.05310  0.81780  0.78880  Biso   1.000  C
  H416     1.0000 0.02010  0.84110  0.78920  Biso   1.000  H
  N624     1.0000 0.10880  0.81900  0.77390  Biso   1.000  N
  N625     1.0000 0.10920  0.69380  0.89940  Biso   1.000  N
  C417     1.0000 0.14850  0.69420  0.87670  Biso   1.000  C
  H417     1.0000 0.19530  0.69510  0.87660  Biso   1.000  H
  N626     1.0000 0.10850  0.69300  0.85420  Biso   1.000  N
  C418     1.0000 0.04450  0.69190  0.86300  Biso   1.000  C
  H418     1.0000 0.00650  0.69100  0.85170  Biso   1.000  H
  N627     1.0000 0.04490  0.69240  0.89090  Biso   1.000  N
  C419     1.0000 0.12430  0.77210  0.74520  Biso   1.000  C
  H419     1.0000 0.12380  0.77600  0.72600  Biso   1.000  H
  N628     1.0000 0.12550  0.73020  0.75890  Biso   1.000  N
  N629     1.0000 0.12580  0.73950  0.78660  Biso   1.000  N
  C420     1.0000 0.12470  0.78710  0.79000  Biso   1.000  C
  H420     1.0000 0.12460  0.80310  0.80690  Biso   1.000  H
  N630     1.0000 0.12370  0.80720  0.76440  Biso   1.000  N
  C421     1.0000 0.87510  0.20840  0.03792  Biso   1.000  C
  H421     1.0000 0.87400  0.19370  0.05520  Biso   1.000  H
  N631     1.0000 0.87660  0.18670  0.01322  Biso   1.000  N
  C422     1.0000 0.87800  0.21990  0.99345  Biso   1.000  C
  H422     1.0000 0.87920  0.21460  0.97430  Biso   1.000  H
  N632     1.0000 0.87740  0.26220  0.00590  Biso   1.000  N
  N633     1.0000 0.87560  0.25510  0.03340  Biso   1.000  N
  N634     1.0000 0.70560  0.14660  0.95130  Biso   1.000  N
  N635     1.0000 0.69940  0.09950  0.95340  Biso   1.000  N
  C423     1.0000 0.75290  0.08310  0.96750  Biso   1.000  C
  H423     1.0000 0.76140  0.05160  0.97190  Biso   1.000  H
  N636     1.0000 0.79210  0.12020  0.97400  Biso   1.000  N
  C424     1.0000 0.76280  0.15940  0.96400  Biso   1.000  C
  H424     1.0000 0.77930  0.19010  0.96560  Biso   1.000  H
  N637     1.0000 0.70510  0.14720  0.80140  Biso   1.000  N
  N638     1.0000 0.69980  0.09960  0.79980  Biso   1.000  N
  C425     1.0000 0.75330  0.08330  0.78550  Biso   1.000  C
  H425     1.0000 0.76220  0.05170  0.78130  Biso   1.000  H
  N639     1.0000 0.79170  0.12070  0.77820  Biso   1.000  N
  C426     1.0000 0.76190  0.16020  0.78800  Biso   1.000  C
  H426     1.0000 0.77770  0.19100  0.78600  Biso   1.000  H
  N640     1.0000 0.61780  0.20220  0.90030  Biso   1.000  N
  C427     1.0000 0.64950  0.18360  0.87770  Biso   1.000  C
  H427     1.0000 0.68590  0.16290  0.87800  Biso   1.000  H
  N641     1.0000 0.61870  0.20060  0.85440  Biso   1.000  N
  C428     1.0000 0.56780  0.22960  0.86270  Biso   1.000  C
  H428     1.0000 0.53860  0.24600  0.85100  Biso   1.000  H
  N642     1.0000 0.56730  0.23060  0.89100  Biso   1.000  N
  Zn91     1.0000 0.63085  0.19025  0.81422  Biso   1.000  Zn
  Zn92     1.0000 0.63151  0.19104  0.93972  Biso   1.000  Zn
  Zn93     1.0000 0.87764  0.12174  0.99758  Biso   1.000  Zn
  C429     1.0000 0.64260  0.27970  0.77880  Biso   1.000  C
  H429     1.0000 0.68380  0.27140  0.77100  Biso   1.000  H
  N643     1.0000 0.60780  0.25420  0.79670  Biso   1.000  N
  N644     1.0000 0.55250  0.27770  0.80290  Biso   1.000  N
  C430     1.0000 0.55310  0.31780  0.78880  Biso   1.000  C
  H430     1.0000 0.52010  0.34110  0.78920  Biso   1.000  H
  N645     1.0000 0.60880  0.31900  0.77390  Biso   1.000  N
  N646     1.0000 0.60920  0.19380  0.89940  Biso   1.000  N
  C431     1.0000 0.64850  0.19420  0.87670  Biso   1.000  C
  H431     1.0000 0.69530  0.19510  0.87660  Biso   1.000  H
  N647     1.0000 0.60850  0.19300  0.85420  Biso   1.000  N
  C432     1.0000 0.54450  0.19190  0.86300  Biso   1.000  C
  H432     1.0000 0.50650  0.19100  0.85170  Biso   1.000  H
  N648     1.0000 0.54490  0.19240  0.89090  Biso   1.000  N
  C433     1.0000 0.62430  0.27210  0.74520  Biso   1.000  C
  H433     1.0000 0.62380  0.27600  0.72600  Biso   1.000  H
  N649     1.0000 0.62550  0.23020  0.75890  Biso   1.000  N
  N650     1.0000 0.62580  0.23950  0.78660  Biso   1.000  N
  C434     1.0000 0.62470  0.28710  0.79000  Biso   1.000  C
  H434     1.0000 0.62460  0.30310  0.80690  Biso   1.000  H
  N651     1.0000 0.62370  0.30720  0.76440  Biso   1.000  N
  C435     1.0000 0.87510  0.70840  0.53792  Biso   1.000  C
  H435     1.0000 0.87400  0.69370  0.55520  Biso   1.000  H
  N652     1.0000 0.87660  0.68670  0.51322  Biso   1.000  N
  C436     1.0000 0.87800  0.71990  0.49345  Biso   1.000  C
  H436     1.0000 0.87920  0.71460  0.47430  Biso   1.000  H
  N653     1.0000 0.87740  0.76220  0.50590  Biso   1.000  N
  N654     1.0000 0.87560  0.75510  0.53340  Biso   1.000  N
  N655     1.0000 0.70560  0.64660  0.45130  Biso   1.000  N
  N656     1.0000 0.69940  0.59950  0.45340  Biso   1.000  N
  C437     1.0000 0.75290  0.58310  0.46750  Biso   1.000  C
  H437     1.0000 0.76140  0.55160  0.47190  Biso   1.000  H
  N657     1.0000 0.79210  0.62020  0.47400  Biso   1.000  N
  C438     1.0000 0.76280  0.65940  0.46400  Biso   1.000  C
  H438     1.0000 0.77930  0.69010  0.46560  Biso   1.000  H
  N658     1.0000 0.70510  0.64720  0.30140  Biso   1.000  N
  N659     1.0000 0.69980  0.59960  0.29980  Biso   1.000  N
  C439     1.0000 0.75330  0.58330  0.28550  Biso   1.000  C
  H439     1.0000 0.76220  0.55170  0.28130  Biso   1.000  H
  N660     1.0000 0.79170  0.62070  0.27820  Biso   1.000  N
  C440     1.0000 0.76190  0.66020  0.28800  Biso   1.000  C
  H440     1.0000 0.77770  0.69100  0.28600  Biso   1.000  H
  N661     1.0000 0.61780  0.70220  0.40030  Biso   1.000  N
  C441     1.0000 0.64950  0.68360  0.37770  Biso   1.000  C
  H441     1.0000 0.68590  0.66290  0.37800  Biso   1.000  H
  N662     1.0000 0.61870  0.70060  0.35440  Biso   1.000  N
  C442     1.0000 0.56780  0.72960  0.36270  Biso   1.000  C
  H442     1.0000 0.53860  0.74600  0.35100  Biso   1.000  H
  N663     1.0000 0.56730  0.73060  0.39100  Biso   1.000  N
  Zn94     1.0000 0.63085  0.69025  0.31422  Biso   1.000  Zn
  Zn95     1.0000 0.63151  0.69104  0.43972  Biso   1.000  Zn
  Zn96     1.0000 0.87764  0.62174  0.49758  Biso   1.000  Zn
  C443     1.0000 0.64260  0.77970  0.27880  Biso   1.000  C
  H443     1.0000 0.68380  0.77140  0.27100  Biso   1.000  H
  N664     1.0000 0.60780  0.75420  0.29670  Biso   1.000  N
  N665     1.0000 0.55250  0.77770  0.30290  Biso   1.000  N
  C444     1.0000 0.55310  0.81780  0.28880  Biso   1.000  C
  H444     1.0000 0.52010  0.84110  0.28920  Biso   1.000  H
  N666     1.0000 0.60880  0.81900  0.27390  Biso   1.000  N
  N667     1.0000 0.60920  0.69380  0.39940  Biso   1.000  N
  C445     1.0000 0.64850  0.69420  0.37670  Biso   1.000  C
  H445     1.0000 0.69530  0.69510  0.37660  Biso   1.000  H
  N668     1.0000 0.60850  0.69300  0.35420  Biso   1.000  N
  C446     1.0000 0.54450  0.69190  0.36300  Biso   1.000  C
  H446     1.0000 0.50650  0.69100  0.35170  Biso   1.000  H
  N669     1.0000 0.54490  0.69240  0.39090  Biso   1.000  N
  C447     1.0000 0.62430  0.77210  0.24520  Biso   1.000  C
  H447     1.0000 0.62380  0.77600  0.22600  Biso   1.000  H
  N670     1.0000 0.62550  0.73020  0.25890  Biso   1.000  N
  N671     1.0000 0.62580  0.73950  0.28660  Biso   1.000  N
  C448     1.0000 0.62470  0.78710  0.29000  Biso   1.000  C
  H448     1.0000 0.62460  0.80310  0.30690  Biso   1.000  H
  N672     1.0000 0.62370  0.80720  0.26440  Biso   1.000  N
