data_image0
_cell_length_a       26.582
_cell_length_b       26.582
_cell_length_c       39.19
_cell_angle_alpha    90
_cell_angle_beta     90
_cell_angle_gamma    90

_symmetry_space_group_name_H-M    "P 1"
_symmetry_int_tables_number       1

loop_
  _symmetry_equiv_pos_as_xyz
  'x, y, z'

loop_
  _atom_site_label
  _atom_site_occupancy
  _atom_site_fract_x
  _atom_site_fract_y
  _atom_site_fract_z
  _atom_site_thermal_displace_type
  _atom_site_B_iso_or_equiv
  _atom_site_type_symbol
  Cu1      1.0000 0.11039  0.18234  0.14508  Biso   1.000  Cu
  Cu2      1.0000 0.14412  0.24254  0.19383  Biso   1.000  Cu
  O1       1.0000 0.13961  0.12923  0.17317  Biso   1.000  O
  O2       1.0000 0.16787  0.17929  0.21432  Biso   1.000  O
  O3       1.0000 0.18111  0.95023  0.17401  Biso   1.000  O
  O4       1.0000 0.23040  0.92115  0.21553  Biso   1.000  O
  O5       1.0000 0.36593  0.21595  0.46415  Biso   1.000  O
  O6       1.0000 0.34680  0.13420  0.46444  Biso   1.000  O
  O7       1.0000 0.30412  0.32264  0.37434  Biso   1.000  O
  O8       1.0000 0.25406  0.29343  0.33281  Biso   1.000  O
  O9       1.0000 0.08386  0.24164  0.12281  Biso   1.000  O
  O10      1.0000 0.11096  0.29297  0.16396  Biso   1.000  O
  O11      1.0000 0.96625  0.30362  0.03597  Biso   1.000  O
  O12      1.0000 0.94651  0.38554  0.03578  Biso   1.000  O
  O13      1.0000 0.16274  0.29618  0.22957  Biso   1.000  O
  C1       1.0000 0.21314  0.05572  0.31026  Biso   1.000  C
  C2       1.0000 0.23290  0.09871  0.32500  Biso   1.000  C
  H1       1.0000 0.24310  0.12520  0.31110  Biso   1.000  H
  C3       1.0000 0.23794  0.10327  0.36037  Biso   1.000  C
  C4       1.0000 0.22303  0.06295  0.38071  Biso   1.000  C
  H2       1.0000 0.22620  0.06490  0.40430  Biso   1.000  H
  C5       1.0000 0.20347  0.02010  0.36577  Biso   1.000  C
  H3       1.0000 0.19340  0.99340  0.37950  Biso   1.000  H
  C6       1.0000 0.19863  0.01628  0.33117  Biso   1.000  C
  H4       1.0000 0.18550  0.98710  0.32160  Biso   1.000  H
  C7       1.0000 0.20561  0.05247  0.27258  Biso   1.000  C
  C8       1.0000 0.19069  0.09445  0.25435  Biso   1.000  C
  H5       1.0000 0.18890  0.12540  0.26540  Biso   1.000  H
  C9       1.0000 0.17833  0.09145  0.21998  Biso   1.000  C
  C10      1.0000 0.18148  0.04577  0.20352  Biso   1.000  C
  H6       1.0000 0.17230  0.04340  0.18070  Biso   1.000  H
  C11      1.0000 0.19816  0.00340  0.22069  Biso   1.000  C
  C12      1.0000 0.21017  0.00727  0.25517  Biso   1.000  C
  H7       1.0000 0.22150  0.97890  0.26680  Biso   1.000  H
  C13      1.0000 0.16054  0.13724  0.20092  Biso   1.000  C
  C14      1.0000 0.20402  0.95430  0.20200  Biso   1.000  C
  C15      1.0000 0.26114  0.14849  0.37651  Biso   1.000  C
  C16      1.0000 0.28920  0.14411  0.40642  Biso   1.000  C
  H8       1.0000 0.29290  0.11260  0.41640  Biso   1.000  H
  C17      1.0000 0.31138  0.18468  0.42158  Biso   1.000  C
  C18      1.0000 0.30734  0.23207  0.40675  Biso   1.000  C
  H9       1.0000 0.32270  0.25970  0.41690  Biso   1.000  H
  C19      1.0000 0.28003  0.23781  0.37653  Biso   1.000  C
  C20      1.0000 0.25715  0.19645  0.36193  Biso   1.000  C
  H10      1.0000 0.23870  0.20050  0.34200  Biso   1.000  H
  C21      1.0000 0.34408  0.17809  0.45250  Biso   1.000  C
  C22      1.0000 0.27949  0.28878  0.35990  Biso   1.000  C
  C23      1.0000 0.01030  0.45513  0.14692  Biso   1.000  C
  C24      1.0000 0.02130  0.45690  0.18260  Biso   1.000  C
  H11      1.0000 0.05520  0.44400  0.19020  Biso   1.000  H
  C25      1.0000 0.01875  0.40808  0.12790  Biso   1.000  C
  C26      1.0000 0.04998  0.37030  0.13986  Biso   1.000  C
  H12      1.0000 0.06770  0.37520  0.16010  Biso   1.000  H
  C27      1.0000 0.05544  0.32531  0.12236  Biso   1.000  C
  C28      1.0000 0.03003  0.31796  0.09200  Biso   1.000  C
  H13      1.0000 0.03370  0.28780  0.08030  Biso   1.000  H
  C29      1.0000 0.99937  0.35510  0.07901  Biso   1.000  C
  C30      1.0000 0.99412  0.39985  0.09709  Biso   1.000  C
  H14      1.0000 0.97350  0.42500  0.08830  Biso   1.000  H
  C31      1.0000 0.08636  0.28334  0.13782  Biso   1.000  C
  C32      1.0000 0.96845  0.34680  0.04745  Biso   1.000  C
  C33      1.0000 0.01490  0.50260  0.19955  Biso   1.000  C
  C34      1.0000 0.99870  0.45330  0.18170  Biso   1.000  C
  H15      1.0000 0.01200  0.42590  0.19620  Biso   1.000  H
  Cu3      1.0000 0.88961  0.81766  0.14508  Biso   1.000  Cu
  Cu4      1.0000 0.85588  0.75746  0.19383  Biso   1.000  Cu
  O14      1.0000 0.86039  0.87077  0.17317  Biso   1.000  O
  O15      1.0000 0.83213  0.82071  0.21432  Biso   1.000  O
  O16      1.0000 0.81889  0.04977  0.17401  Biso   1.000  O
  O17      1.0000 0.76960  0.07885  0.21553  Biso   1.000  O
  O18      1.0000 0.63407  0.78405  0.46415  Biso   1.000  O
  O19      1.0000 0.65320  0.86580  0.46444  Biso   1.000  O
  O20      1.0000 0.69588  0.67736  0.37434  Biso   1.000  O
  O21      1.0000 0.74594  0.70657  0.33281  Biso   1.000  O
  O22      1.0000 0.91614  0.75836  0.12281  Biso   1.000  O
  O23      1.0000 0.88904  0.70703  0.16396  Biso   1.000  O
  O24      1.0000 0.03375  0.69638  0.03597  Biso   1.000  O
  O25      1.0000 0.05349  0.61446  0.03578  Biso   1.000  O
  O26      1.0000 0.83726  0.70382  0.22957  Biso   1.000  O
  C35      1.0000 0.78686  0.94428  0.31026  Biso   1.000  C
  C36      1.0000 0.76710  0.90129  0.32500  Biso   1.000  C
  H16      1.0000 0.75690  0.87480  0.31110  Biso   1.000  H
  C37      1.0000 0.76206  0.89673  0.36037  Biso   1.000  C
  C38      1.0000 0.77697  0.93705  0.38071  Biso   1.000  C
  H17      1.0000 0.77380  0.93510  0.40430  Biso   1.000  H
  C39      1.0000 0.79653  0.97990  0.36577  Biso   1.000  C
  H18      1.0000 0.80660  0.00660  0.37950  Biso   1.000  H
  C40      1.0000 0.80137  0.98372  0.33117  Biso   1.000  C
  H19      1.0000 0.81450  0.01290  0.32160  Biso   1.000  H
  C41      1.0000 0.79439  0.94753  0.27258  Biso   1.000  C
  C42      1.0000 0.80931  0.90555  0.25435  Biso   1.000  C
  H20      1.0000 0.81110  0.87460  0.26540  Biso   1.000  H
  C43      1.0000 0.82167  0.90855  0.21998  Biso   1.000  C
  C44      1.0000 0.81852  0.95423  0.20352  Biso   1.000  C
  H21      1.0000 0.82770  0.95660  0.18070  Biso   1.000  H
  C45      1.0000 0.80184  0.99660  0.22069  Biso   1.000  C
  C46      1.0000 0.78983  0.99273  0.25517  Biso   1.000  C
  H22      1.0000 0.77850  0.02110  0.26680  Biso   1.000  H
  C47      1.0000 0.83946  0.86276  0.20092  Biso   1.000  C
  C48      1.0000 0.79598  0.04570  0.20200  Biso   1.000  C
  C49      1.0000 0.73886  0.85151  0.37651  Biso   1.000  C
  C50      1.0000 0.71080  0.85589  0.40642  Biso   1.000  C
  H23      1.0000 0.70710  0.88740  0.41640  Biso   1.000  H
  C51      1.0000 0.68862  0.81532  0.42158  Biso   1.000  C
  C52      1.0000 0.69266  0.76793  0.40675  Biso   1.000  C
  H24      1.0000 0.67730  0.74030  0.41690  Biso   1.000  H
  C53      1.0000 0.71997  0.76219  0.37653  Biso   1.000  C
  C54      1.0000 0.74285  0.80355  0.36193  Biso   1.000  C
  H25      1.0000 0.76130  0.79950  0.34200  Biso   1.000  H
  C55      1.0000 0.65592  0.82191  0.45250  Biso   1.000  C
  C56      1.0000 0.72051  0.71122  0.35990  Biso   1.000  C
  C57      1.0000 0.98970  0.54487  0.14692  Biso   1.000  C
  C58      1.0000 0.97870  0.54310  0.18260  Biso   1.000  C
  H26      1.0000 0.94480  0.55600  0.19020  Biso   1.000  H
  C59      1.0000 0.98125  0.59192  0.12790  Biso   1.000  C
  C60      1.0000 0.95002  0.62970  0.13986  Biso   1.000  C
  H27      1.0000 0.93230  0.62480  0.16010  Biso   1.000  H
  C61      1.0000 0.94456  0.67469  0.12236  Biso   1.000  C
  C62      1.0000 0.96997  0.68204  0.09200  Biso   1.000  C
  H28      1.0000 0.96630  0.71220  0.08030  Biso   1.000  H
  C63      1.0000 0.00063  0.64490  0.07901  Biso   1.000  C
  C64      1.0000 0.00588  0.60015  0.09709  Biso   1.000  C
  H29      1.0000 0.02650  0.57500  0.08830  Biso   1.000  H
  C65      1.0000 0.91364  0.71666  0.13782  Biso   1.000  C
  C66      1.0000 0.03155  0.65320  0.04745  Biso   1.000  C
  C67      1.0000 0.98510  0.49740  0.19955  Biso   1.000  C
  C68      1.0000 0.00130  0.54670  0.18170  Biso   1.000  C
  H30      1.0000 0.98800  0.57410  0.19620  Biso   1.000  H
  Cu5      1.0000 0.81766  0.11039  0.14508  Biso   1.000  Cu
  Cu6      1.0000 0.75746  0.14412  0.19383  Biso   1.000  Cu
  O27      1.0000 0.87077  0.13961  0.17317  Biso   1.000  O
  O28      1.0000 0.82071  0.16787  0.21432  Biso   1.000  O
  O29      1.0000 0.04977  0.18111  0.17401  Biso   1.000  O
  O30      1.0000 0.07885  0.23040  0.21553  Biso   1.000  O
  O31      1.0000 0.78405  0.36593  0.46415  Biso   1.000  O
  O32      1.0000 0.86580  0.34680  0.46444  Biso   1.000  O
  O33      1.0000 0.67736  0.30412  0.37434  Biso   1.000  O
  O34      1.0000 0.70657  0.25406  0.33281  Biso   1.000  O
  O35      1.0000 0.75836  0.08386  0.12281  Biso   1.000  O
  O36      1.0000 0.70703  0.11096  0.16396  Biso   1.000  O
  O37      1.0000 0.69638  0.96625  0.03597  Biso   1.000  O
  O38      1.0000 0.61446  0.94651  0.03578  Biso   1.000  O
  O39      1.0000 0.70382  0.16274  0.22957  Biso   1.000  O
  C69      1.0000 0.94428  0.21314  0.31026  Biso   1.000  C
  C70      1.0000 0.90129  0.23290  0.32500  Biso   1.000  C
  H31      1.0000 0.87480  0.24310  0.31110  Biso   1.000  H
  C71      1.0000 0.89673  0.23794  0.36037  Biso   1.000  C
  C72      1.0000 0.93705  0.22303  0.38071  Biso   1.000  C
  H32      1.0000 0.93510  0.22620  0.40430  Biso   1.000  H
  C73      1.0000 0.97990  0.20347  0.36577  Biso   1.000  C
  H33      1.0000 0.00660  0.19340  0.37950  Biso   1.000  H
  C74      1.0000 0.98372  0.19863  0.33117  Biso   1.000  C
  H34      1.0000 0.01290  0.18550  0.32160  Biso   1.000  H
  C75      1.0000 0.94753  0.20561  0.27258  Biso   1.000  C
  C76      1.0000 0.90555  0.19069  0.25435  Biso   1.000  C
  H35      1.0000 0.87460  0.18890  0.26540  Biso   1.000  H
  C77      1.0000 0.90855  0.17833  0.21998  Biso   1.000  C
  C78      1.0000 0.95423  0.18148  0.20352  Biso   1.000  C
  H36      1.0000 0.95660  0.17230  0.18070  Biso   1.000  H
  C79      1.0000 0.99660  0.19816  0.22069  Biso   1.000  C
  C80      1.0000 0.99273  0.21017  0.25517  Biso   1.000  C
  H37      1.0000 0.02110  0.22150  0.26680  Biso   1.000  H
  C81      1.0000 0.86276  0.16054  0.20092  Biso   1.000  C
  C82      1.0000 0.04570  0.20402  0.20200  Biso   1.000  C
  C83      1.0000 0.85151  0.26114  0.37651  Biso   1.000  C
  C84      1.0000 0.85589  0.28920  0.40642  Biso   1.000  C
  H38      1.0000 0.88740  0.29290  0.41640  Biso   1.000  H
  C85      1.0000 0.81532  0.31138  0.42158  Biso   1.000  C
  C86      1.0000 0.76793  0.30734  0.40675  Biso   1.000  C
  H39      1.0000 0.74030  0.32270  0.41690  Biso   1.000  H
  C87      1.0000 0.76219  0.28003  0.37653  Biso   1.000  C
  C88      1.0000 0.80355  0.25715  0.36193  Biso   1.000  C
  H40      1.0000 0.79950  0.23870  0.34200  Biso   1.000  H
  C89      1.0000 0.82191  0.34408  0.45250  Biso   1.000  C
  C90      1.0000 0.71122  0.27949  0.35990  Biso   1.000  C
  C91      1.0000 0.54487  0.01030  0.14692  Biso   1.000  C
  C92      1.0000 0.54310  0.02130  0.18260  Biso   1.000  C
  H41      1.0000 0.55600  0.05520  0.19020  Biso   1.000  H
  C93      1.0000 0.59192  0.01875  0.12790  Biso   1.000  C
  C94      1.0000 0.62970  0.04998  0.13986  Biso   1.000  C
  H42      1.0000 0.62480  0.06770  0.16010  Biso   1.000  H
  C95      1.0000 0.67469  0.05544  0.12236  Biso   1.000  C
  C96      1.0000 0.68204  0.03003  0.09200  Biso   1.000  C
  H43      1.0000 0.71220  0.03370  0.08030  Biso   1.000  H
  C97      1.0000 0.64490  0.99937  0.07901  Biso   1.000  C
  C98      1.0000 0.60015  0.99412  0.09709  Biso   1.000  C
  H44      1.0000 0.57500  0.97350  0.08830  Biso   1.000  H
  C99      1.0000 0.71666  0.08636  0.13782  Biso   1.000  C
  C100     1.0000 0.65320  0.96845  0.04745  Biso   1.000  C
  C101     1.0000 0.49740  0.01490  0.19955  Biso   1.000  C
  C102     1.0000 0.54670  0.99870  0.18170  Biso   1.000  C
  H45      1.0000 0.57410  0.01200  0.19620  Biso   1.000  H
  Cu7      1.0000 0.18234  0.88961  0.14508  Biso   1.000  Cu
  Cu8      1.0000 0.24254  0.85588  0.19383  Biso   1.000  Cu
  O40      1.0000 0.12923  0.86039  0.17317  Biso   1.000  O
  O41      1.0000 0.17929  0.83213  0.21432  Biso   1.000  O
  O42      1.0000 0.95023  0.81889  0.17401  Biso   1.000  O
  O43      1.0000 0.92115  0.76960  0.21553  Biso   1.000  O
  O44      1.0000 0.21595  0.63407  0.46415  Biso   1.000  O
  O45      1.0000 0.13420  0.65320  0.46444  Biso   1.000  O
  O46      1.0000 0.32264  0.69588  0.37434  Biso   1.000  O
  O47      1.0000 0.29343  0.74594  0.33281  Biso   1.000  O
  O48      1.0000 0.24164  0.91614  0.12281  Biso   1.000  O
  O49      1.0000 0.29297  0.88904  0.16396  Biso   1.000  O
  O50      1.0000 0.30362  0.03375  0.03597  Biso   1.000  O
  O51      1.0000 0.38554  0.05349  0.03578  Biso   1.000  O
  O52      1.0000 0.29618  0.83726  0.22957  Biso   1.000  O
  C103     1.0000 0.05572  0.78686  0.31026  Biso   1.000  C
  C104     1.0000 0.09871  0.76710  0.32500  Biso   1.000  C
  H46      1.0000 0.12520  0.75690  0.31110  Biso   1.000  H
  C105     1.0000 0.10327  0.76206  0.36037  Biso   1.000  C
  C106     1.0000 0.06295  0.77697  0.38071  Biso   1.000  C
  H47      1.0000 0.06490  0.77380  0.40430  Biso   1.000  H
  C107     1.0000 0.02010  0.79653  0.36577  Biso   1.000  C
  H48      1.0000 0.99340  0.80660  0.37950  Biso   1.000  H
  C108     1.0000 0.01628  0.80137  0.33117  Biso   1.000  C
  H49      1.0000 0.98710  0.81450  0.32160  Biso   1.000  H
  C109     1.0000 0.05247  0.79439  0.27258  Biso   1.000  C
  C110     1.0000 0.09445  0.80931  0.25435  Biso   1.000  C
  H50      1.0000 0.12540  0.81110  0.26540  Biso   1.000  H
  C111     1.0000 0.09145  0.82167  0.21998  Biso   1.000  C
  C112     1.0000 0.04577  0.81852  0.20352  Biso   1.000  C
  H51      1.0000 0.04340  0.82770  0.18070  Biso   1.000  H
  C113     1.0000 0.00340  0.80184  0.22069  Biso   1.000  C
  C114     1.0000 0.00727  0.78983  0.25517  Biso   1.000  C
  H52      1.0000 0.97890  0.77850  0.26680  Biso   1.000  H
  C115     1.0000 0.13724  0.83946  0.20092  Biso   1.000  C
  C116     1.0000 0.95430  0.79598  0.20200  Biso   1.000  C
  C117     1.0000 0.14849  0.73886  0.37651  Biso   1.000  C
  C118     1.0000 0.14411  0.71080  0.40642  Biso   1.000  C
  H53      1.0000 0.11260  0.70710  0.41640  Biso   1.000  H
  C119     1.0000 0.18468  0.68862  0.42158  Biso   1.000  C
  C120     1.0000 0.23207  0.69266  0.40675  Biso   1.000  C
  H54      1.0000 0.25970  0.67730  0.41690  Biso   1.000  H
  C121     1.0000 0.23781  0.71997  0.37653  Biso   1.000  C
  C122     1.0000 0.19645  0.74285  0.36193  Biso   1.000  C
  H55      1.0000 0.20050  0.76130  0.34200  Biso   1.000  H
  C123     1.0000 0.17809  0.65592  0.45250  Biso   1.000  C
  C124     1.0000 0.28878  0.72051  0.35990  Biso   1.000  C
  C125     1.0000 0.45513  0.98970  0.14692  Biso   1.000  C
  C126     1.0000 0.45690  0.97870  0.18260  Biso   1.000  C
  H56      1.0000 0.44400  0.94480  0.19020  Biso   1.000  H
  C127     1.0000 0.40808  0.98125  0.12790  Biso   1.000  C
  C128     1.0000 0.37030  0.95002  0.13986  Biso   1.000  C
  H57      1.0000 0.37520  0.93230  0.16010  Biso   1.000  H
  C129     1.0000 0.32531  0.94456  0.12236  Biso   1.000  C
  C130     1.0000 0.31796  0.96997  0.09200  Biso   1.000  C
  H58      1.0000 0.28780  0.96630  0.08030  Biso   1.000  H
  C131     1.0000 0.35510  0.00063  0.07901  Biso   1.000  C
  C132     1.0000 0.39985  0.00588  0.09709  Biso   1.000  C
  H59      1.0000 0.42500  0.02650  0.08830  Biso   1.000  H
  C133     1.0000 0.28334  0.91364  0.13782  Biso   1.000  C
  C134     1.0000 0.34680  0.03155  0.04745  Biso   1.000  C
  C135     1.0000 0.50260  0.98510  0.19955  Biso   1.000  C
  C136     1.0000 0.45330  0.00130  0.18170  Biso   1.000  C
  H60      1.0000 0.42590  0.98800  0.19620  Biso   1.000  H
  Cu9      1.0000 0.38961  0.68234  0.35492  Biso   1.000  Cu
  Cu10     1.0000 0.35588  0.74254  0.30617  Biso   1.000  Cu
  O53      1.0000 0.36039  0.62923  0.32683  Biso   1.000  O
  O54      1.0000 0.33213  0.67929  0.28568  Biso   1.000  O
  O55      1.0000 0.31889  0.45023  0.32599  Biso   1.000  O
  O56      1.0000 0.26960  0.42115  0.28447  Biso   1.000  O
  O57      1.0000 0.13407  0.71595  0.03585  Biso   1.000  O
  O58      1.0000 0.15320  0.63420  0.03556  Biso   1.000  O
  O59      1.0000 0.19588  0.82264  0.12566  Biso   1.000  O
  O60      1.0000 0.24594  0.79343  0.16719  Biso   1.000  O
  O61      1.0000 0.41614  0.74164  0.37719  Biso   1.000  O
  O62      1.0000 0.38904  0.79297  0.33604  Biso   1.000  O
  O63      1.0000 0.53375  0.80362  0.46403  Biso   1.000  O
  O64      1.0000 0.55349  0.88554  0.46422  Biso   1.000  O
  O65      1.0000 0.33726  0.79618  0.27043  Biso   1.000  O
  C137     1.0000 0.28686  0.55572  0.18974  Biso   1.000  C
  C138     1.0000 0.26710  0.59871  0.17500  Biso   1.000  C
  H61      1.0000 0.25690  0.62520  0.18890  Biso   1.000  H
  C139     1.0000 0.26206  0.60327  0.13963  Biso   1.000  C
  C140     1.0000 0.27697  0.56295  0.11929  Biso   1.000  C
  H62      1.0000 0.27380  0.56490  0.09570  Biso   1.000  H
  C141     1.0000 0.29653  0.52010  0.13423  Biso   1.000  C
  H63      1.0000 0.30660  0.49340  0.12050  Biso   1.000  H
  C142     1.0000 0.30137  0.51628  0.16883  Biso   1.000  C
  H64      1.0000 0.31450  0.48710  0.17840  Biso   1.000  H
  C143     1.0000 0.29439  0.55247  0.22742  Biso   1.000  C
  C144     1.0000 0.30931  0.59445  0.24565  Biso   1.000  C
  H65      1.0000 0.31110  0.62540  0.23460  Biso   1.000  H
  C145     1.0000 0.32167  0.59145  0.28002  Biso   1.000  C
  C146     1.0000 0.31852  0.54577  0.29648  Biso   1.000  C
  H66      1.0000 0.32770  0.54340  0.31930  Biso   1.000  H
  C147     1.0000 0.30184  0.50340  0.27931  Biso   1.000  C
  C148     1.0000 0.28983  0.50727  0.24483  Biso   1.000  C
  H67      1.0000 0.27850  0.47890  0.23320  Biso   1.000  H
  C149     1.0000 0.33946  0.63724  0.29908  Biso   1.000  C
  C150     1.0000 0.29598  0.45430  0.29800  Biso   1.000  C
  C151     1.0000 0.23886  0.64849  0.12349  Biso   1.000  C
  C152     1.0000 0.21080  0.64411  0.09358  Biso   1.000  C
  H68      1.0000 0.20710  0.61260  0.08360  Biso   1.000  H
  C153     1.0000 0.18862  0.68468  0.07842  Biso   1.000  C
  C154     1.0000 0.19266  0.73207  0.09325  Biso   1.000  C
  H69      1.0000 0.17730  0.75970  0.08310  Biso   1.000  H
  C155     1.0000 0.21997  0.73781  0.12347  Biso   1.000  C
  C156     1.0000 0.24285  0.69645  0.13807  Biso   1.000  C
  H70      1.0000 0.26130  0.70050  0.15800  Biso   1.000  H
  C157     1.0000 0.15592  0.67809  0.04750  Biso   1.000  C
  C158     1.0000 0.22051  0.78878  0.14010  Biso   1.000  C
  C159     1.0000 0.48970  0.95513  0.35308  Biso   1.000  C
  C160     1.0000 0.47870  0.95690  0.31740  Biso   1.000  C
  H71      1.0000 0.44480  0.94400  0.30980  Biso   1.000  H
  C161     1.0000 0.48125  0.90808  0.37210  Biso   1.000  C
  C162     1.0000 0.45002  0.87030  0.36014  Biso   1.000  C
  H72      1.0000 0.43230  0.87520  0.33990  Biso   1.000  H
  C163     1.0000 0.44456  0.82531  0.37764  Biso   1.000  C
  C164     1.0000 0.46997  0.81796  0.40800  Biso   1.000  C
  H73      1.0000 0.46630  0.78780  0.41970  Biso   1.000  H
  C165     1.0000 0.50063  0.85510  0.42099  Biso   1.000  C
  C166     1.0000 0.50588  0.89985  0.40291  Biso   1.000  C
  H74      1.0000 0.52650  0.92500  0.41170  Biso   1.000  H
  C167     1.0000 0.41364  0.78334  0.36218  Biso   1.000  C
  C168     1.0000 0.53155  0.84680  0.45255  Biso   1.000  C
  C169     1.0000 0.48510  0.00260  0.30045  Biso   1.000  C
  C170     1.0000 0.50130  0.95330  0.31830  Biso   1.000  C
  H75      1.0000 0.48800  0.92590  0.30380  Biso   1.000  H
  Cu11     1.0000 0.61039  0.31766  0.35492  Biso   1.000  Cu
  Cu12     1.0000 0.64412  0.25746  0.30617  Biso   1.000  Cu
  O66      1.0000 0.63961  0.37077  0.32683  Biso   1.000  O
  O67      1.0000 0.66787  0.32071  0.28568  Biso   1.000  O
  O68      1.0000 0.68111  0.54977  0.32599  Biso   1.000  O
  O69      1.0000 0.73040  0.57885  0.28447  Biso   1.000  O
  O70      1.0000 0.86593  0.28405  0.03585  Biso   1.000  O
  O71      1.0000 0.84680  0.36580  0.03556  Biso   1.000  O
  O72      1.0000 0.80412  0.17736  0.12566  Biso   1.000  O
  O73      1.0000 0.75406  0.20657  0.16719  Biso   1.000  O
  O74      1.0000 0.58386  0.25836  0.37719  Biso   1.000  O
  O75      1.0000 0.61096  0.20703  0.33604  Biso   1.000  O
  O76      1.0000 0.46625  0.19638  0.46403  Biso   1.000  O
  O77      1.0000 0.44651  0.11446  0.46422  Biso   1.000  O
  O78      1.0000 0.66274  0.20382  0.27043  Biso   1.000  O
  C171     1.0000 0.71314  0.44428  0.18974  Biso   1.000  C
  C172     1.0000 0.73290  0.40129  0.17500  Biso   1.000  C
  H76      1.0000 0.74310  0.37480  0.18890  Biso   1.000  H
  C173     1.0000 0.73794  0.39673  0.13963  Biso   1.000  C
  C174     1.0000 0.72303  0.43705  0.11929  Biso   1.000  C
  H77      1.0000 0.72620  0.43510  0.09570  Biso   1.000  H
  C175     1.0000 0.70347  0.47990  0.13423  Biso   1.000  C
  H78      1.0000 0.69340  0.50660  0.12050  Biso   1.000  H
  C176     1.0000 0.69863  0.48372  0.16883  Biso   1.000  C
  H79      1.0000 0.68550  0.51290  0.17840  Biso   1.000  H
  C177     1.0000 0.70561  0.44753  0.22742  Biso   1.000  C
  C178     1.0000 0.69069  0.40555  0.24565  Biso   1.000  C
  H80      1.0000 0.68890  0.37460  0.23460  Biso   1.000  H
  C179     1.0000 0.67833  0.40855  0.28002  Biso   1.000  C
  C180     1.0000 0.68148  0.45423  0.29648  Biso   1.000  C
  H81      1.0000 0.67230  0.45660  0.31930  Biso   1.000  H
  C181     1.0000 0.69816  0.49660  0.27931  Biso   1.000  C
  C182     1.0000 0.71017  0.49273  0.24483  Biso   1.000  C
  H82      1.0000 0.72150  0.52110  0.23320  Biso   1.000  H
  C183     1.0000 0.66054  0.36276  0.29908  Biso   1.000  C
  C184     1.0000 0.70402  0.54570  0.29800  Biso   1.000  C
  C185     1.0000 0.76114  0.35151  0.12349  Biso   1.000  C
  C186     1.0000 0.78920  0.35589  0.09358  Biso   1.000  C
  H83      1.0000 0.79290  0.38740  0.08360  Biso   1.000  H
  C187     1.0000 0.81138  0.31532  0.07842  Biso   1.000  C
  C188     1.0000 0.80734  0.26793  0.09325  Biso   1.000  C
  H84      1.0000 0.82270  0.24030  0.08310  Biso   1.000  H
  C189     1.0000 0.78003  0.26219  0.12347  Biso   1.000  C
  C190     1.0000 0.75715  0.30355  0.13807  Biso   1.000  C
  H85      1.0000 0.73870  0.29950  0.15800  Biso   1.000  H
  C191     1.0000 0.84408  0.32191  0.04750  Biso   1.000  C
  C192     1.0000 0.77949  0.21122  0.14010  Biso   1.000  C
  C193     1.0000 0.51030  0.04487  0.35308  Biso   1.000  C
  C194     1.0000 0.52130  0.04310  0.31740  Biso   1.000  C
  H86      1.0000 0.55520  0.05600  0.30980  Biso   1.000  H
  C195     1.0000 0.51875  0.09192  0.37210  Biso   1.000  C
  C196     1.0000 0.54998  0.12970  0.36014  Biso   1.000  C
  H87      1.0000 0.56770  0.12480  0.33990  Biso   1.000  H
  C197     1.0000 0.55544  0.17469  0.37764  Biso   1.000  C
  C198     1.0000 0.53003  0.18204  0.40800  Biso   1.000  C
  H88      1.0000 0.53370  0.21220  0.41970  Biso   1.000  H
  C199     1.0000 0.49937  0.14490  0.42099  Biso   1.000  C
  C200     1.0000 0.49412  0.10015  0.40291  Biso   1.000  C
  H89      1.0000 0.47350  0.07500  0.41170  Biso   1.000  H
  C201     1.0000 0.58636  0.21666  0.36218  Biso   1.000  C
  C202     1.0000 0.46845  0.15320  0.45255  Biso   1.000  C
  C203     1.0000 0.51490  0.99740  0.30045  Biso   1.000  C
  C204     1.0000 0.49870  0.04670  0.31830  Biso   1.000  C
  H90      1.0000 0.51200  0.07410  0.30380  Biso   1.000  H
  Cu13     1.0000 0.68234  0.61039  0.35492  Biso   1.000  Cu
  Cu14     1.0000 0.74254  0.64412  0.30617  Biso   1.000  Cu
  O79      1.0000 0.62923  0.63961  0.32683  Biso   1.000  O
  O80      1.0000 0.67929  0.66787  0.28568  Biso   1.000  O
  O81      1.0000 0.45023  0.68111  0.32599  Biso   1.000  O
  O82      1.0000 0.42115  0.73040  0.28447  Biso   1.000  O
  O83      1.0000 0.71595  0.86593  0.03585  Biso   1.000  O
  O84      1.0000 0.63420  0.84680  0.03556  Biso   1.000  O
  O85      1.0000 0.82264  0.80412  0.12566  Biso   1.000  O
  O86      1.0000 0.79343  0.75406  0.16719  Biso   1.000  O
  O87      1.0000 0.74164  0.58386  0.37719  Biso   1.000  O
  O88      1.0000 0.79297  0.61096  0.33604  Biso   1.000  O
  O89      1.0000 0.80362  0.46625  0.46403  Biso   1.000  O
  O90      1.0000 0.88554  0.44651  0.46422  Biso   1.000  O
  O91      1.0000 0.79618  0.66274  0.27043  Biso   1.000  O
  C205     1.0000 0.55572  0.71314  0.18974  Biso   1.000  C
  C206     1.0000 0.59871  0.73290  0.17500  Biso   1.000  C
  H91      1.0000 0.62520  0.74310  0.18890  Biso   1.000  H
  C207     1.0000 0.60327  0.73794  0.13963  Biso   1.000  C
  C208     1.0000 0.56295  0.72303  0.11929  Biso   1.000  C
  H92      1.0000 0.56490  0.72620  0.09570  Biso   1.000  H
  C209     1.0000 0.52010  0.70347  0.13423  Biso   1.000  C
  H93      1.0000 0.49340  0.69340  0.12050  Biso   1.000  H
  C210     1.0000 0.51628  0.69863  0.16883  Biso   1.000  C
  H94      1.0000 0.48710  0.68550  0.17840  Biso   1.000  H
  C211     1.0000 0.55247  0.70561  0.22742  Biso   1.000  C
  C212     1.0000 0.59445  0.69069  0.24565  Biso   1.000  C
  H95      1.0000 0.62540  0.68890  0.23460  Biso   1.000  H
  C213     1.0000 0.59145  0.67833  0.28002  Biso   1.000  C
  C214     1.0000 0.54577  0.68148  0.29648  Biso   1.000  C
  H96      1.0000 0.54340  0.67230  0.31930  Biso   1.000  H
  C215     1.0000 0.50340  0.69816  0.27931  Biso   1.000  C
  C216     1.0000 0.50727  0.71017  0.24483  Biso   1.000  C
  H97      1.0000 0.47890  0.72150  0.23320  Biso   1.000  H
  C217     1.0000 0.63724  0.66054  0.29908  Biso   1.000  C
  C218     1.0000 0.45430  0.70402  0.29800  Biso   1.000  C
  C219     1.0000 0.64849  0.76114  0.12349  Biso   1.000  C
  C220     1.0000 0.64411  0.78920  0.09358  Biso   1.000  C
  H98      1.0000 0.61260  0.79290  0.08360  Biso   1.000  H
  C221     1.0000 0.68468  0.81138  0.07842  Biso   1.000  C
  C222     1.0000 0.73207  0.80734  0.09325  Biso   1.000  C
  H99      1.0000 0.75970  0.82270  0.08310  Biso   1.000  H
  C223     1.0000 0.73781  0.78003  0.12347  Biso   1.000  C
  C224     1.0000 0.69645  0.75715  0.13807  Biso   1.000  C
  H100     1.0000 0.70050  0.73870  0.15800  Biso   1.000  H
  C225     1.0000 0.67809  0.84408  0.04750  Biso   1.000  C
  C226     1.0000 0.78878  0.77949  0.14010  Biso   1.000  C
  C227     1.0000 0.95513  0.51030  0.35308  Biso   1.000  C
  C228     1.0000 0.95690  0.52130  0.31740  Biso   1.000  C
  H101     1.0000 0.94400  0.55520  0.30980  Biso   1.000  H
  C229     1.0000 0.90808  0.51875  0.37210  Biso   1.000  C
  C230     1.0000 0.87030  0.54998  0.36014  Biso   1.000  C
  H102     1.0000 0.87520  0.56770  0.33990  Biso   1.000  H
  C231     1.0000 0.82531  0.55544  0.37764  Biso   1.000  C
  C232     1.0000 0.81796  0.53003  0.40800  Biso   1.000  C
  H103     1.0000 0.78780  0.53370  0.41970  Biso   1.000  H
  C233     1.0000 0.85510  0.49937  0.42099  Biso   1.000  C
  C234     1.0000 0.89985  0.49412  0.40291  Biso   1.000  C
  H104     1.0000 0.92500  0.47350  0.41170  Biso   1.000  H
  C235     1.0000 0.78334  0.58636  0.36218  Biso   1.000  C
  C236     1.0000 0.84680  0.46845  0.45255  Biso   1.000  C
  C237     1.0000 0.00260  0.51490  0.30045  Biso   1.000  C
  C238     1.0000 0.95330  0.49870  0.31830  Biso   1.000  C
  H105     1.0000 0.92590  0.51200  0.30380  Biso   1.000  H
  Cu15     1.0000 0.31766  0.38961  0.35492  Biso   1.000  Cu
  Cu16     1.0000 0.25746  0.35588  0.30617  Biso   1.000  Cu
  O92      1.0000 0.37077  0.36039  0.32683  Biso   1.000  O
  O93      1.0000 0.32071  0.33213  0.28568  Biso   1.000  O
  O94      1.0000 0.54977  0.31889  0.32599  Biso   1.000  O
  O95      1.0000 0.57885  0.26960  0.28447  Biso   1.000  O
  O96      1.0000 0.28405  0.13407  0.03585  Biso   1.000  O
  O97      1.0000 0.36580  0.15320  0.03556  Biso   1.000  O
  O98      1.0000 0.17736  0.19588  0.12566  Biso   1.000  O
  O99      1.0000 0.20657  0.24594  0.16719  Biso   1.000  O
  O100     1.0000 0.25836  0.41614  0.37719  Biso   1.000  O
  O101     1.0000 0.20703  0.38904  0.33604  Biso   1.000  O
  O102     1.0000 0.19638  0.53375  0.46403  Biso   1.000  O
  O103     1.0000 0.11446  0.55349  0.46422  Biso   1.000  O
  O104     1.0000 0.20382  0.33726  0.27043  Biso   1.000  O
  C239     1.0000 0.44428  0.28686  0.18974  Biso   1.000  C
  C240     1.0000 0.40129  0.26710  0.17500  Biso   1.000  C
  H106     1.0000 0.37480  0.25690  0.18890  Biso   1.000  H
  C241     1.0000 0.39673  0.26206  0.13963  Biso   1.000  C
  C242     1.0000 0.43705  0.27697  0.11929  Biso   1.000  C
  H107     1.0000 0.43510  0.27380  0.09570  Biso   1.000  H
  C243     1.0000 0.47990  0.29653  0.13423  Biso   1.000  C
  H108     1.0000 0.50660  0.30660  0.12050  Biso   1.000  H
  C244     1.0000 0.48372  0.30137  0.16883  Biso   1.000  C
  H109     1.0000 0.51290  0.31450  0.17840  Biso   1.000  H
  C245     1.0000 0.44753  0.29439  0.22742  Biso   1.000  C
  C246     1.0000 0.40555  0.30931  0.24565  Biso   1.000  C
  H110     1.0000 0.37460  0.31110  0.23460  Biso   1.000  H
  C247     1.0000 0.40855  0.32167  0.28002  Biso   1.000  C
  C248     1.0000 0.45423  0.31852  0.29648  Biso   1.000  C
  H111     1.0000 0.45660  0.32770  0.31930  Biso   1.000  H
  C249     1.0000 0.49660  0.30184  0.27931  Biso   1.000  C
  C250     1.0000 0.49273  0.28983  0.24483  Biso   1.000  C
  H112     1.0000 0.52110  0.27850  0.23320  Biso   1.000  H
  C251     1.0000 0.36276  0.33946  0.29908  Biso   1.000  C
  C252     1.0000 0.54570  0.29598  0.29800  Biso   1.000  C
  C253     1.0000 0.35151  0.23886  0.12349  Biso   1.000  C
  C254     1.0000 0.35589  0.21080  0.09358  Biso   1.000  C
  H113     1.0000 0.38740  0.20710  0.08360  Biso   1.000  H
  C255     1.0000 0.31532  0.18862  0.07842  Biso   1.000  C
  C256     1.0000 0.26793  0.19266  0.09325  Biso   1.000  C
  H114     1.0000 0.24030  0.17730  0.08310  Biso   1.000  H
  C257     1.0000 0.26219  0.21997  0.12347  Biso   1.000  C
  C258     1.0000 0.30355  0.24285  0.13807  Biso   1.000  C
  H115     1.0000 0.29950  0.26130  0.15800  Biso   1.000  H
  C259     1.0000 0.32191  0.15592  0.04750  Biso   1.000  C
  C260     1.0000 0.21122  0.22051  0.14010  Biso   1.000  C
  C261     1.0000 0.04487  0.48970  0.35308  Biso   1.000  C
  C262     1.0000 0.04310  0.47870  0.31740  Biso   1.000  C
  H116     1.0000 0.05600  0.44480  0.30980  Biso   1.000  H
  C263     1.0000 0.09192  0.48125  0.37210  Biso   1.000  C
  C264     1.0000 0.12970  0.45002  0.36014  Biso   1.000  C
  H117     1.0000 0.12480  0.43230  0.33990  Biso   1.000  H
  C265     1.0000 0.17469  0.44456  0.37764  Biso   1.000  C
  C266     1.0000 0.18204  0.46997  0.40800  Biso   1.000  C
  H118     1.0000 0.21220  0.46630  0.41970  Biso   1.000  H
  C267     1.0000 0.14490  0.50063  0.42099  Biso   1.000  C
  C268     1.0000 0.10015  0.50588  0.40291  Biso   1.000  C
  H119     1.0000 0.07500  0.52650  0.41170  Biso   1.000  H
  C269     1.0000 0.21666  0.41364  0.36218  Biso   1.000  C
  C270     1.0000 0.15320  0.53155  0.45255  Biso   1.000  C
  C271     1.0000 0.99740  0.48510  0.30045  Biso   1.000  C
  C272     1.0000 0.04670  0.50130  0.31830  Biso   1.000  C
  H120     1.0000 0.07410  0.48800  0.30380  Biso   1.000  H
  Cu17     1.0000 0.88961  0.81766  0.85492  Biso   1.000  Cu
  Cu18     1.0000 0.85588  0.75746  0.80617  Biso   1.000  Cu
  O105     1.0000 0.86039  0.87077  0.82683  Biso   1.000  O
  O106     1.0000 0.83213  0.82071  0.78568  Biso   1.000  O
  O107     1.0000 0.81889  0.04977  0.82599  Biso   1.000  O
  O108     1.0000 0.76960  0.07885  0.78447  Biso   1.000  O
  O109     1.0000 0.63407  0.78405  0.53585  Biso   1.000  O
  O110     1.0000 0.65320  0.86580  0.53556  Biso   1.000  O
  O111     1.0000 0.69588  0.67736  0.62566  Biso   1.000  O
  O112     1.0000 0.74594  0.70657  0.66719  Biso   1.000  O
  O113     1.0000 0.91614  0.75836  0.87719  Biso   1.000  O
  O114     1.0000 0.88904  0.70703  0.83604  Biso   1.000  O
  O115     1.0000 0.03375  0.69638  0.96403  Biso   1.000  O
  O116     1.0000 0.05349  0.61446  0.96422  Biso   1.000  O
  O117     1.0000 0.83726  0.70382  0.77043  Biso   1.000  O
  C273     1.0000 0.78686  0.94428  0.68974  Biso   1.000  C
  C274     1.0000 0.76710  0.90129  0.67500  Biso   1.000  C
  H121     1.0000 0.75690  0.87480  0.68890  Biso   1.000  H
  C275     1.0000 0.76206  0.89673  0.63963  Biso   1.000  C
  C276     1.0000 0.77697  0.93705  0.61929  Biso   1.000  C
  H122     1.0000 0.77380  0.93510  0.59570  Biso   1.000  H
  C277     1.0000 0.79653  0.97990  0.63423  Biso   1.000  C
  H123     1.0000 0.80660  0.00660  0.62050  Biso   1.000  H
  C278     1.0000 0.80137  0.98372  0.66883  Biso   1.000  C
  H124     1.0000 0.81450  0.01290  0.67840  Biso   1.000  H
  C279     1.0000 0.79439  0.94753  0.72742  Biso   1.000  C
  C280     1.0000 0.80931  0.90555  0.74565  Biso   1.000  C
  H125     1.0000 0.81110  0.87460  0.73460  Biso   1.000  H
  C281     1.0000 0.82167  0.90855  0.78002  Biso   1.000  C
  C282     1.0000 0.81852  0.95423  0.79648  Biso   1.000  C
  H126     1.0000 0.82770  0.95660  0.81930  Biso   1.000  H
  C283     1.0000 0.80184  0.99660  0.77931  Biso   1.000  C
  C284     1.0000 0.78983  0.99273  0.74483  Biso   1.000  C
  H127     1.0000 0.77850  0.02110  0.73320  Biso   1.000  H
  C285     1.0000 0.83946  0.86276  0.79908  Biso   1.000  C
  C286     1.0000 0.79598  0.04570  0.79800  Biso   1.000  C
  C287     1.0000 0.73886  0.85151  0.62349  Biso   1.000  C
  C288     1.0000 0.71080  0.85589  0.59358  Biso   1.000  C
  H128     1.0000 0.70710  0.88740  0.58360  Biso   1.000  H
  C289     1.0000 0.68862  0.81532  0.57842  Biso   1.000  C
  C290     1.0000 0.69266  0.76793  0.59325  Biso   1.000  C
  H129     1.0000 0.67730  0.74030  0.58310  Biso   1.000  H
  C291     1.0000 0.71997  0.76219  0.62347  Biso   1.000  C
  C292     1.0000 0.74285  0.80355  0.63807  Biso   1.000  C
  H130     1.0000 0.76130  0.79950  0.65800  Biso   1.000  H
  C293     1.0000 0.65592  0.82191  0.54750  Biso   1.000  C
  C294     1.0000 0.72051  0.71122  0.64010  Biso   1.000  C
  C295     1.0000 0.98970  0.54487  0.85308  Biso   1.000  C
  C296     1.0000 0.97870  0.54310  0.81740  Biso   1.000  C
  H131     1.0000 0.94480  0.55600  0.80980  Biso   1.000  H
  C297     1.0000 0.98125  0.59192  0.87210  Biso   1.000  C
  C298     1.0000 0.95002  0.62970  0.86014  Biso   1.000  C
  H132     1.0000 0.93230  0.62480  0.83990  Biso   1.000  H
  C299     1.0000 0.94456  0.67469  0.87764  Biso   1.000  C
  C300     1.0000 0.96997  0.68204  0.90800  Biso   1.000  C
  H133     1.0000 0.96630  0.71220  0.91970  Biso   1.000  H
  C301     1.0000 0.00063  0.64490  0.92099  Biso   1.000  C
  C302     1.0000 0.00588  0.60015  0.90291  Biso   1.000  C
  H134     1.0000 0.02650  0.57500  0.91170  Biso   1.000  H
  C303     1.0000 0.91364  0.71666  0.86218  Biso   1.000  C
  C304     1.0000 0.03155  0.65320  0.95255  Biso   1.000  C
  C305     1.0000 0.98510  0.49740  0.80045  Biso   1.000  C
  C306     1.0000 0.00130  0.54670  0.81830  Biso   1.000  C
  H135     1.0000 0.98800  0.57410  0.80380  Biso   1.000  H
  Cu19     1.0000 0.11039  0.18234  0.85492  Biso   1.000  Cu
  Cu20     1.0000 0.14412  0.24254  0.80617  Biso   1.000  Cu
  O118     1.0000 0.13961  0.12923  0.82683  Biso   1.000  O
  O119     1.0000 0.16787  0.17929  0.78568  Biso   1.000  O
  O120     1.0000 0.18111  0.95023  0.82599  Biso   1.000  O
  O121     1.0000 0.23040  0.92115  0.78447  Biso   1.000  O
  O122     1.0000 0.36593  0.21595  0.53585  Biso   1.000  O
  O123     1.0000 0.34680  0.13420  0.53556  Biso   1.000  O
  O124     1.0000 0.30412  0.32264  0.62566  Biso   1.000  O
  O125     1.0000 0.25406  0.29343  0.66719  Biso   1.000  O
  O126     1.0000 0.08386  0.24164  0.87719  Biso   1.000  O
  O127     1.0000 0.11096  0.29297  0.83604  Biso   1.000  O
  O128     1.0000 0.96625  0.30362  0.96403  Biso   1.000  O
  O129     1.0000 0.94651  0.38554  0.96422  Biso   1.000  O
  O130     1.0000 0.16274  0.29618  0.77043  Biso   1.000  O
  C307     1.0000 0.21314  0.05572  0.68974  Biso   1.000  C
  C308     1.0000 0.23290  0.09871  0.67500  Biso   1.000  C
  H136     1.0000 0.24310  0.12520  0.68890  Biso   1.000  H
  C309     1.0000 0.23794  0.10327  0.63963  Biso   1.000  C
  C310     1.0000 0.22303  0.06295  0.61929  Biso   1.000  C
  H137     1.0000 0.22620  0.06490  0.59570  Biso   1.000  H
  C311     1.0000 0.20347  0.02010  0.63423  Biso   1.000  C
  H138     1.0000 0.19340  0.99340  0.62050  Biso   1.000  H
  C312     1.0000 0.19863  0.01628  0.66883  Biso   1.000  C
  H139     1.0000 0.18550  0.98710  0.67840  Biso   1.000  H
  C313     1.0000 0.20561  0.05247  0.72742  Biso   1.000  C
  C314     1.0000 0.19069  0.09445  0.74565  Biso   1.000  C
  H140     1.0000 0.18890  0.12540  0.73460  Biso   1.000  H
  C315     1.0000 0.17833  0.09145  0.78002  Biso   1.000  C
  C316     1.0000 0.18148  0.04577  0.79648  Biso   1.000  C
  H141     1.0000 0.17230  0.04340  0.81930  Biso   1.000  H
  C317     1.0000 0.19816  0.00340  0.77931  Biso   1.000  C
  C318     1.0000 0.21017  0.00727  0.74483  Biso   1.000  C
  H142     1.0000 0.22150  0.97890  0.73320  Biso   1.000  H
  C319     1.0000 0.16054  0.13724  0.79908  Biso   1.000  C
  C320     1.0000 0.20402  0.95430  0.79800  Biso   1.000  C
  C321     1.0000 0.26114  0.14849  0.62349  Biso   1.000  C
  C322     1.0000 0.28920  0.14411  0.59358  Biso   1.000  C
  H143     1.0000 0.29290  0.11260  0.58360  Biso   1.000  H
  C323     1.0000 0.31138  0.18468  0.57842  Biso   1.000  C
  C324     1.0000 0.30734  0.23207  0.59325  Biso   1.000  C
  H144     1.0000 0.32270  0.25970  0.58310  Biso   1.000  H
  C325     1.0000 0.28003  0.23781  0.62347  Biso   1.000  C
  C326     1.0000 0.25715  0.19645  0.63807  Biso   1.000  C
  H145     1.0000 0.23870  0.20050  0.65800  Biso   1.000  H
  C327     1.0000 0.34408  0.17809  0.54750  Biso   1.000  C
  C328     1.0000 0.27949  0.28878  0.64010  Biso   1.000  C
  C329     1.0000 0.01030  0.45513  0.85308  Biso   1.000  C
  C330     1.0000 0.02130  0.45690  0.81740  Biso   1.000  C
  H146     1.0000 0.05520  0.44400  0.80980  Biso   1.000  H
  C331     1.0000 0.01875  0.40808  0.87210  Biso   1.000  C
  C332     1.0000 0.04998  0.37030  0.86014  Biso   1.000  C
  H147     1.0000 0.06770  0.37520  0.83990  Biso   1.000  H
  C333     1.0000 0.05544  0.32531  0.87764  Biso   1.000  C
  C334     1.0000 0.03003  0.31796  0.90800  Biso   1.000  C
  H148     1.0000 0.03370  0.28780  0.91970  Biso   1.000  H
  C335     1.0000 0.99937  0.35510  0.92099  Biso   1.000  C
  C336     1.0000 0.99412  0.39985  0.90291  Biso   1.000  C
  H149     1.0000 0.97350  0.42500  0.91170  Biso   1.000  H
  C337     1.0000 0.08636  0.28334  0.86218  Biso   1.000  C
  C338     1.0000 0.96845  0.34680  0.95255  Biso   1.000  C
  C339     1.0000 0.01490  0.50260  0.80045  Biso   1.000  C
  C340     1.0000 0.99870  0.45330  0.81830  Biso   1.000  C
  H150     1.0000 0.01200  0.42590  0.80380  Biso   1.000  H
  Cu21     1.0000 0.18234  0.88961  0.85492  Biso   1.000  Cu
  Cu22     1.0000 0.24254  0.85588  0.80617  Biso   1.000  Cu
  O131     1.0000 0.12923  0.86039  0.82683  Biso   1.000  O
  O132     1.0000 0.17929  0.83213  0.78568  Biso   1.000  O
  O133     1.0000 0.95023  0.81889  0.82599  Biso   1.000  O
  O134     1.0000 0.92115  0.76960  0.78447  Biso   1.000  O
  O135     1.0000 0.21595  0.63407  0.53585  Biso   1.000  O
  O136     1.0000 0.13420  0.65320  0.53556  Biso   1.000  O
  O137     1.0000 0.32264  0.69588  0.62566  Biso   1.000  O
  O138     1.0000 0.29343  0.74594  0.66719  Biso   1.000  O
  O139     1.0000 0.24164  0.91614  0.87719  Biso   1.000  O
  O140     1.0000 0.29297  0.88904  0.83604  Biso   1.000  O
  O141     1.0000 0.30362  0.03375  0.96403  Biso   1.000  O
  O142     1.0000 0.38554  0.05349  0.96422  Biso   1.000  O
  O143     1.0000 0.29618  0.83726  0.77043  Biso   1.000  O
  C341     1.0000 0.05572  0.78686  0.68974  Biso   1.000  C
  C342     1.0000 0.09871  0.76710  0.67500  Biso   1.000  C
  H151     1.0000 0.12520  0.75690  0.68890  Biso   1.000  H
  C343     1.0000 0.10327  0.76206  0.63963  Biso   1.000  C
  C344     1.0000 0.06295  0.77697  0.61929  Biso   1.000  C
  H152     1.0000 0.06490  0.77380  0.59570  Biso   1.000  H
  C345     1.0000 0.02010  0.79653  0.63423  Biso   1.000  C
  H153     1.0000 0.99340  0.80660  0.62050  Biso   1.000  H
  C346     1.0000 0.01628  0.80137  0.66883  Biso   1.000  C
  H154     1.0000 0.98710  0.81450  0.67840  Biso   1.000  H
  C347     1.0000 0.05247  0.79439  0.72742  Biso   1.000  C
  C348     1.0000 0.09445  0.80931  0.74565  Biso   1.000  C
  H155     1.0000 0.12540  0.81110  0.73460  Biso   1.000  H
  C349     1.0000 0.09145  0.82167  0.78002  Biso   1.000  C
  C350     1.0000 0.04577  0.81852  0.79648  Biso   1.000  C
  H156     1.0000 0.04340  0.82770  0.81930  Biso   1.000  H
  C351     1.0000 0.00340  0.80184  0.77931  Biso   1.000  C
  C352     1.0000 0.00727  0.78983  0.74483  Biso   1.000  C
  H157     1.0000 0.97890  0.77850  0.73320  Biso   1.000  H
  C353     1.0000 0.13724  0.83946  0.79908  Biso   1.000  C
  C354     1.0000 0.95430  0.79598  0.79800  Biso   1.000  C
  C355     1.0000 0.14849  0.73886  0.62349  Biso   1.000  C
  C356     1.0000 0.14411  0.71080  0.59358  Biso   1.000  C
  H158     1.0000 0.11260  0.70710  0.58360  Biso   1.000  H
  C357     1.0000 0.18468  0.68862  0.57842  Biso   1.000  C
  C358     1.0000 0.23207  0.69266  0.59325  Biso   1.000  C
  H159     1.0000 0.25970  0.67730  0.58310  Biso   1.000  H
  C359     1.0000 0.23781  0.71997  0.62347  Biso   1.000  C
  C360     1.0000 0.19645  0.74285  0.63807  Biso   1.000  C
  H160     1.0000 0.20050  0.76130  0.65800  Biso   1.000  H
  C361     1.0000 0.17809  0.65592  0.54750  Biso   1.000  C
  C362     1.0000 0.28878  0.72051  0.64010  Biso   1.000  C
  C363     1.0000 0.45513  0.98970  0.85308  Biso   1.000  C
  C364     1.0000 0.45690  0.97870  0.81740  Biso   1.000  C
  H161     1.0000 0.44400  0.94480  0.80980  Biso   1.000  H
  C365     1.0000 0.40808  0.98125  0.87210  Biso   1.000  C
  C366     1.0000 0.37030  0.95002  0.86014  Biso   1.000  C
  H162     1.0000 0.37520  0.93230  0.83990  Biso   1.000  H
  C367     1.0000 0.32531  0.94456  0.87764  Biso   1.000  C
  C368     1.0000 0.31796  0.96997  0.90800  Biso   1.000  C
  H163     1.0000 0.28780  0.96630  0.91970  Biso   1.000  H
  C369     1.0000 0.35510  0.00063  0.92099  Biso   1.000  C
  C370     1.0000 0.39985  0.00588  0.90291  Biso   1.000  C
  H164     1.0000 0.42500  0.02650  0.91170  Biso   1.000  H
  C371     1.0000 0.28334  0.91364  0.86218  Biso   1.000  C
  C372     1.0000 0.34680  0.03155  0.95255  Biso   1.000  C
  C373     1.0000 0.50260  0.98510  0.80045  Biso   1.000  C
  C374     1.0000 0.45330  0.00130  0.81830  Biso   1.000  C
  H165     1.0000 0.42590  0.98800  0.80380  Biso   1.000  H
  Cu23     1.0000 0.81766  0.11039  0.85492  Biso   1.000  Cu
  Cu24     1.0000 0.75746  0.14412  0.80617  Biso   1.000  Cu
  O144     1.0000 0.87077  0.13961  0.82683  Biso   1.000  O
  O145     1.0000 0.82071  0.16787  0.78568  Biso   1.000  O
  O146     1.0000 0.04977  0.18111  0.82599  Biso   1.000  O
  O147     1.0000 0.07885  0.23040  0.78447  Biso   1.000  O
  O148     1.0000 0.78405  0.36593  0.53585  Biso   1.000  O
  O149     1.0000 0.86580  0.34680  0.53556  Biso   1.000  O
  O150     1.0000 0.67736  0.30412  0.62566  Biso   1.000  O
  O151     1.0000 0.70657  0.25406  0.66719  Biso   1.000  O
  O152     1.0000 0.75836  0.08386  0.87719  Biso   1.000  O
  O153     1.0000 0.70703  0.11096  0.83604  Biso   1.000  O
  O154     1.0000 0.69638  0.96625  0.96403  Biso   1.000  O
  O155     1.0000 0.61446  0.94651  0.96422  Biso   1.000  O
  O156     1.0000 0.70382  0.16274  0.77043  Biso   1.000  O
  C375     1.0000 0.94428  0.21314  0.68974  Biso   1.000  C
  C376     1.0000 0.90129  0.23290  0.67500  Biso   1.000  C
  H166     1.0000 0.87480  0.24310  0.68890  Biso   1.000  H
  C377     1.0000 0.89673  0.23794  0.63963  Biso   1.000  C
  C378     1.0000 0.93705  0.22303  0.61929  Biso   1.000  C
  H167     1.0000 0.93510  0.22620  0.59570  Biso   1.000  H
  C379     1.0000 0.97990  0.20347  0.63423  Biso   1.000  C
  H168     1.0000 0.00660  0.19340  0.62050  Biso   1.000  H
  C380     1.0000 0.98372  0.19863  0.66883  Biso   1.000  C
  H169     1.0000 0.01290  0.18550  0.67840  Biso   1.000  H
  C381     1.0000 0.94753  0.20561  0.72742  Biso   1.000  C
  C382     1.0000 0.90555  0.19069  0.74565  Biso   1.000  C
  H170     1.0000 0.87460  0.18890  0.73460  Biso   1.000  H
  C383     1.0000 0.90855  0.17833  0.78002  Biso   1.000  C
  C384     1.0000 0.95423  0.18148  0.79648  Biso   1.000  C
  H171     1.0000 0.95660  0.17230  0.81930  Biso   1.000  H
  C385     1.0000 0.99660  0.19816  0.77931  Biso   1.000  C
  C386     1.0000 0.99273  0.21017  0.74483  Biso   1.000  C
  H172     1.0000 0.02110  0.22150  0.73320  Biso   1.000  H
  C387     1.0000 0.86276  0.16054  0.79908  Biso   1.000  C
  C388     1.0000 0.04570  0.20402  0.79800  Biso   1.000  C
  C389     1.0000 0.85151  0.26114  0.62349  Biso   1.000  C
  C390     1.0000 0.85589  0.28920  0.59358  Biso   1.000  C
  H173     1.0000 0.88740  0.29290  0.58360  Biso   1.000  H
  C391     1.0000 0.81532  0.31138  0.57842  Biso   1.000  C
  C392     1.0000 0.76793  0.30734  0.59325  Biso   1.000  C
  H174     1.0000 0.74030  0.32270  0.58310  Biso   1.000  H
  C393     1.0000 0.76219  0.28003  0.62347  Biso   1.000  C
  C394     1.0000 0.80355  0.25715  0.63807  Biso   1.000  C
  H175     1.0000 0.79950  0.23870  0.65800  Biso   1.000  H
  C395     1.0000 0.82191  0.34408  0.54750  Biso   1.000  C
  C396     1.0000 0.71122  0.27949  0.64010  Biso   1.000  C
  C397     1.0000 0.54487  0.01030  0.85308  Biso   1.000  C
  C398     1.0000 0.54310  0.02130  0.81740  Biso   1.000  C
  H176     1.0000 0.55600  0.05520  0.80980  Biso   1.000  H
  C399     1.0000 0.59192  0.01875  0.87210  Biso   1.000  C
  C400     1.0000 0.62970  0.04998  0.86014  Biso   1.000  C
  H177     1.0000 0.62480  0.06770  0.83990  Biso   1.000  H
  C401     1.0000 0.67469  0.05544  0.87764  Biso   1.000  C
  C402     1.0000 0.68204  0.03003  0.90800  Biso   1.000  C
  H178     1.0000 0.71220  0.03370  0.91970  Biso   1.000  H
  C403     1.0000 0.64490  0.99937  0.92099  Biso   1.000  C
  C404     1.0000 0.60015  0.99412  0.90291  Biso   1.000  C
  H179     1.0000 0.57500  0.97350  0.91170  Biso   1.000  H
  C405     1.0000 0.71666  0.08636  0.86218  Biso   1.000  C
  C406     1.0000 0.65320  0.96845  0.95255  Biso   1.000  C
  C407     1.0000 0.49740  0.01490  0.80045  Biso   1.000  C
  C408     1.0000 0.54670  0.99870  0.81830  Biso   1.000  C
  H180     1.0000 0.57410  0.01200  0.80380  Biso   1.000  H
  Cu25     1.0000 0.61039  0.31766  0.64508  Biso   1.000  Cu
  Cu26     1.0000 0.64412  0.25746  0.69383  Biso   1.000  Cu
  O157     1.0000 0.63961  0.37077  0.67317  Biso   1.000  O
  O158     1.0000 0.66787  0.32071  0.71432  Biso   1.000  O
  O159     1.0000 0.68111  0.54977  0.67401  Biso   1.000  O
  O160     1.0000 0.73040  0.57885  0.71553  Biso   1.000  O
  O161     1.0000 0.86593  0.28405  0.96415  Biso   1.000  O
  O162     1.0000 0.84680  0.36580  0.96444  Biso   1.000  O
  O163     1.0000 0.80412  0.17736  0.87434  Biso   1.000  O
  O164     1.0000 0.75406  0.20657  0.83281  Biso   1.000  O
  O165     1.0000 0.58386  0.25836  0.62281  Biso   1.000  O
  O166     1.0000 0.61096  0.20703  0.66396  Biso   1.000  O
  O167     1.0000 0.46625  0.19638  0.53597  Biso   1.000  O
  O168     1.0000 0.44651  0.11446  0.53578  Biso   1.000  O
  O169     1.0000 0.66274  0.20382  0.72957  Biso   1.000  O
  C409     1.0000 0.71314  0.44428  0.81026  Biso   1.000  C
  C410     1.0000 0.73290  0.40129  0.82500  Biso   1.000  C
  H181     1.0000 0.74310  0.37480  0.81110  Biso   1.000  H
  C411     1.0000 0.73794  0.39673  0.86037  Biso   1.000  C
  C412     1.0000 0.72303  0.43705  0.88071  Biso   1.000  C
  H182     1.0000 0.72620  0.43510  0.90430  Biso   1.000  H
  C413     1.0000 0.70347  0.47990  0.86577  Biso   1.000  C
  H183     1.0000 0.69340  0.50660  0.87950  Biso   1.000  H
  C414     1.0000 0.69863  0.48372  0.83117  Biso   1.000  C
  H184     1.0000 0.68550  0.51290  0.82160  Biso   1.000  H
  C415     1.0000 0.70561  0.44753  0.77258  Biso   1.000  C
  C416     1.0000 0.69069  0.40555  0.75435  Biso   1.000  C
  H185     1.0000 0.68890  0.37460  0.76540  Biso   1.000  H
  C417     1.0000 0.67833  0.40855  0.71998  Biso   1.000  C
  C418     1.0000 0.68148  0.45423  0.70352  Biso   1.000  C
  H186     1.0000 0.67230  0.45660  0.68070  Biso   1.000  H
  C419     1.0000 0.69816  0.49660  0.72069  Biso   1.000  C
  C420     1.0000 0.71017  0.49273  0.75517  Biso   1.000  C
  H187     1.0000 0.72150  0.52110  0.76680  Biso   1.000  H
  C421     1.0000 0.66054  0.36276  0.70092  Biso   1.000  C
  C422     1.0000 0.70402  0.54570  0.70200  Biso   1.000  C
  C423     1.0000 0.76114  0.35151  0.87651  Biso   1.000  C
  C424     1.0000 0.78920  0.35589  0.90642  Biso   1.000  C
  H188     1.0000 0.79290  0.38740  0.91640  Biso   1.000  H
  C425     1.0000 0.81138  0.31532  0.92158  Biso   1.000  C
  C426     1.0000 0.80734  0.26793  0.90675  Biso   1.000  C
  H189     1.0000 0.82270  0.24030  0.91690  Biso   1.000  H
  C427     1.0000 0.78003  0.26219  0.87653  Biso   1.000  C
  C428     1.0000 0.75715  0.30355  0.86193  Biso   1.000  C
  H190     1.0000 0.73870  0.29950  0.84200  Biso   1.000  H
  C429     1.0000 0.84408  0.32191  0.95250  Biso   1.000  C
  C430     1.0000 0.77949  0.21122  0.85990  Biso   1.000  C
  C431     1.0000 0.51030  0.04487  0.64692  Biso   1.000  C
  C432     1.0000 0.52130  0.04310  0.68260  Biso   1.000  C
  H191     1.0000 0.55520  0.05600  0.69020  Biso   1.000  H
  C433     1.0000 0.51875  0.09192  0.62790  Biso   1.000  C
  C434     1.0000 0.54998  0.12970  0.63986  Biso   1.000  C
  H192     1.0000 0.56770  0.12480  0.66010  Biso   1.000  H
  C435     1.0000 0.55544  0.17469  0.62236  Biso   1.000  C
  C436     1.0000 0.53003  0.18204  0.59200  Biso   1.000  C
  H193     1.0000 0.53370  0.21220  0.58030  Biso   1.000  H
  C437     1.0000 0.49937  0.14490  0.57901  Biso   1.000  C
  C438     1.0000 0.49412  0.10015  0.59709  Biso   1.000  C
  H194     1.0000 0.47350  0.07500  0.58830  Biso   1.000  H
  C439     1.0000 0.58636  0.21666  0.63782  Biso   1.000  C
  C440     1.0000 0.46845  0.15320  0.54745  Biso   1.000  C
  C441     1.0000 0.51490  0.99740  0.69955  Biso   1.000  C
  C442     1.0000 0.49870  0.04670  0.68170  Biso   1.000  C
  H195     1.0000 0.51200  0.07410  0.69620  Biso   1.000  H
  Cu27     1.0000 0.38961  0.68234  0.64508  Biso   1.000  Cu
  Cu28     1.0000 0.35588  0.74254  0.69383  Biso   1.000  Cu
  O170     1.0000 0.36039  0.62923  0.67317  Biso   1.000  O
  O171     1.0000 0.33213  0.67929  0.71432  Biso   1.000  O
  O172     1.0000 0.31889  0.45023  0.67401  Biso   1.000  O
  O173     1.0000 0.26960  0.42115  0.71553  Biso   1.000  O
  O174     1.0000 0.13407  0.71595  0.96415  Biso   1.000  O
  O175     1.0000 0.15320  0.63420  0.96444  Biso   1.000  O
  O176     1.0000 0.19588  0.82264  0.87434  Biso   1.000  O
  O177     1.0000 0.24594  0.79343  0.83281  Biso   1.000  O
  O178     1.0000 0.41614  0.74164  0.62281  Biso   1.000  O
  O179     1.0000 0.38904  0.79297  0.66396  Biso   1.000  O
  O180     1.0000 0.53375  0.80362  0.53597  Biso   1.000  O
  O181     1.0000 0.55349  0.88554  0.53578  Biso   1.000  O
  O182     1.0000 0.33726  0.79618  0.72957  Biso   1.000  O
  C443     1.0000 0.28686  0.55572  0.81026  Biso   1.000  C
  C444     1.0000 0.26710  0.59871  0.82500  Biso   1.000  C
  H196     1.0000 0.25690  0.62520  0.81110  Biso   1.000  H
  C445     1.0000 0.26206  0.60327  0.86037  Biso   1.000  C
  C446     1.0000 0.27697  0.56295  0.88071  Biso   1.000  C
  H197     1.0000 0.27380  0.56490  0.90430  Biso   1.000  H
  C447     1.0000 0.29653  0.52010  0.86577  Biso   1.000  C
  H198     1.0000 0.30660  0.49340  0.87950  Biso   1.000  H
  C448     1.0000 0.30137  0.51628  0.83117  Biso   1.000  C
  H199     1.0000 0.31450  0.48710  0.82160  Biso   1.000  H
  C449     1.0000 0.29439  0.55247  0.77258  Biso   1.000  C
  C450     1.0000 0.30931  0.59445  0.75435  Biso   1.000  C
  H200     1.0000 0.31110  0.62540  0.76540  Biso   1.000  H
  C451     1.0000 0.32167  0.59145  0.71998  Biso   1.000  C
  C452     1.0000 0.31852  0.54577  0.70352  Biso   1.000  C
  H201     1.0000 0.32770  0.54340  0.68070  Biso   1.000  H
  C453     1.0000 0.30184  0.50340  0.72069  Biso   1.000  C
  C454     1.0000 0.28983  0.50727  0.75517  Biso   1.000  C
  H202     1.0000 0.27850  0.47890  0.76680  Biso   1.000  H
  C455     1.0000 0.33946  0.63724  0.70092  Biso   1.000  C
  C456     1.0000 0.29598  0.45430  0.70200  Biso   1.000  C
  C457     1.0000 0.23886  0.64849  0.87651  Biso   1.000  C
  C458     1.0000 0.21080  0.64411  0.90642  Biso   1.000  C
  H203     1.0000 0.20710  0.61260  0.91640  Biso   1.000  H
  C459     1.0000 0.18862  0.68468  0.92158  Biso   1.000  C
  C460     1.0000 0.19266  0.73207  0.90675  Biso   1.000  C
  H204     1.0000 0.17730  0.75970  0.91690  Biso   1.000  H
  C461     1.0000 0.21997  0.73781  0.87653  Biso   1.000  C
  C462     1.0000 0.24285  0.69645  0.86193  Biso   1.000  C
  H205     1.0000 0.26130  0.70050  0.84200  Biso   1.000  H
  C463     1.0000 0.15592  0.67809  0.95250  Biso   1.000  C
  C464     1.0000 0.22051  0.78878  0.85990  Biso   1.000  C
  C465     1.0000 0.48970  0.95513  0.64692  Biso   1.000  C
  C466     1.0000 0.47870  0.95690  0.68260  Biso   1.000  C
  H206     1.0000 0.44480  0.94400  0.69020  Biso   1.000  H
  C467     1.0000 0.48125  0.90808  0.62790  Biso   1.000  C
  C468     1.0000 0.45002  0.87030  0.63986  Biso   1.000  C
  H207     1.0000 0.43230  0.87520  0.66010  Biso   1.000  H
  C469     1.0000 0.44456  0.82531  0.62236  Biso   1.000  C
  C470     1.0000 0.46997  0.81796  0.59200  Biso   1.000  C
  H208     1.0000 0.46630  0.78780  0.58030  Biso   1.000  H
  C471     1.0000 0.50063  0.85510  0.57901  Biso   1.000  C
  C472     1.0000 0.50588  0.89985  0.59709  Biso   1.000  C
  H209     1.0000 0.52650  0.92500  0.58830  Biso   1.000  H
  C473     1.0000 0.41364  0.78334  0.63782  Biso   1.000  C
  C474     1.0000 0.53155  0.84680  0.54745  Biso   1.000  C
  C475     1.0000 0.48510  0.00260  0.69955  Biso   1.000  C
  C476     1.0000 0.50130  0.95330  0.68170  Biso   1.000  C
  H210     1.0000 0.48800  0.92590  0.69620  Biso   1.000  H
  Cu29     1.0000 0.31766  0.38961  0.64508  Biso   1.000  Cu
  Cu30     1.0000 0.25746  0.35588  0.69383  Biso   1.000  Cu
  O183     1.0000 0.37077  0.36039  0.67317  Biso   1.000  O
  O184     1.0000 0.32071  0.33213  0.71432  Biso   1.000  O
  O185     1.0000 0.54977  0.31889  0.67401  Biso   1.000  O
  O186     1.0000 0.57885  0.26960  0.71553  Biso   1.000  O
  O187     1.0000 0.28405  0.13407  0.96415  Biso   1.000  O
  O188     1.0000 0.36580  0.15320  0.96444  Biso   1.000  O
  O189     1.0000 0.17736  0.19588  0.87434  Biso   1.000  O
  O190     1.0000 0.20657  0.24594  0.83281  Biso   1.000  O
  O191     1.0000 0.25836  0.41614  0.62281  Biso   1.000  O
  O192     1.0000 0.20703  0.38904  0.66396  Biso   1.000  O
  O193     1.0000 0.19638  0.53375  0.53597  Biso   1.000  O
  O194     1.0000 0.11446  0.55349  0.53578  Biso   1.000  O
  O195     1.0000 0.20382  0.33726  0.72957  Biso   1.000  O
  C477     1.0000 0.44428  0.28686  0.81026  Biso   1.000  C
  C478     1.0000 0.40129  0.26710  0.82500  Biso   1.000  C
  H211     1.0000 0.37480  0.25690  0.81110  Biso   1.000  H
  C479     1.0000 0.39673  0.26206  0.86037  Biso   1.000  C
  C480     1.0000 0.43705  0.27697  0.88071  Biso   1.000  C
  H212     1.0000 0.43510  0.27380  0.90430  Biso   1.000  H
  C481     1.0000 0.47990  0.29653  0.86577  Biso   1.000  C
  H213     1.0000 0.50660  0.30660  0.87950  Biso   1.000  H
  C482     1.0000 0.48372  0.30137  0.83117  Biso   1.000  C
  H214     1.0000 0.51290  0.31450  0.82160  Biso   1.000  H
  C483     1.0000 0.44753  0.29439  0.77258  Biso   1.000  C
  C484     1.0000 0.40555  0.30931  0.75435  Biso   1.000  C
  H215     1.0000 0.37460  0.31110  0.76540  Biso   1.000  H
  C485     1.0000 0.40855  0.32167  0.71998  Biso   1.000  C
  C486     1.0000 0.45423  0.31852  0.70352  Biso   1.000  C
  H216     1.0000 0.45660  0.32770  0.68070  Biso   1.000  H
  C487     1.0000 0.49660  0.30184  0.72069  Biso   1.000  C
  C488     1.0000 0.49273  0.28983  0.75517  Biso   1.000  C
  H217     1.0000 0.52110  0.27850  0.76680  Biso   1.000  H
  C489     1.0000 0.36276  0.33946  0.70092  Biso   1.000  C
  C490     1.0000 0.54570  0.29598  0.70200  Biso   1.000  C
  C491     1.0000 0.35151  0.23886  0.87651  Biso   1.000  C
  C492     1.0000 0.35589  0.21080  0.90642  Biso   1.000  C
  H218     1.0000 0.38740  0.20710  0.91640  Biso   1.000  H
  C493     1.0000 0.31532  0.18862  0.92158  Biso   1.000  C
  C494     1.0000 0.26793  0.19266  0.90675  Biso   1.000  C
  H219     1.0000 0.24030  0.17730  0.91690  Biso   1.000  H
  C495     1.0000 0.26219  0.21997  0.87653  Biso   1.000  C
  C496     1.0000 0.30355  0.24285  0.86193  Biso   1.000  C
  H220     1.0000 0.29950  0.26130  0.84200  Biso   1.000  H
  C497     1.0000 0.32191  0.15592  0.95250  Biso   1.000  C
  C498     1.0000 0.21122  0.22051  0.85990  Biso   1.000  C
  C499     1.0000 0.04487  0.48970  0.64692  Biso   1.000  C
  C500     1.0000 0.04310  0.47870  0.68260  Biso   1.000  C
  H221     1.0000 0.05600  0.44480  0.69020  Biso   1.000  H
  C501     1.0000 0.09192  0.48125  0.62790  Biso   1.000  C
  C502     1.0000 0.12970  0.45002  0.63986  Biso   1.000  C
  H222     1.0000 0.12480  0.43230  0.66010  Biso   1.000  H
  C503     1.0000 0.17469  0.44456  0.62236  Biso   1.000  C
  C504     1.0000 0.18204  0.46997  0.59200  Biso   1.000  C
  H223     1.0000 0.21220  0.46630  0.58030  Biso   1.000  H
  C505     1.0000 0.14490  0.50063  0.57901  Biso   1.000  C
  C506     1.0000 0.10015  0.50588  0.59709  Biso   1.000  C
  H224     1.0000 0.07500  0.52650  0.58830  Biso   1.000  H
  C507     1.0000 0.21666  0.41364  0.63782  Biso   1.000  C
  C508     1.0000 0.15320  0.53155  0.54745  Biso   1.000  C
  C509     1.0000 0.99740  0.48510  0.69955  Biso   1.000  C
  C510     1.0000 0.04670  0.50130  0.68170  Biso   1.000  C
  H225     1.0000 0.07410  0.48800  0.69620  Biso   1.000  H
  Cu31     1.0000 0.68234  0.61039  0.64508  Biso   1.000  Cu
  Cu32     1.0000 0.74254  0.64412  0.69383  Biso   1.000  Cu
  O196     1.0000 0.62923  0.63961  0.67317  Biso   1.000  O
  O197     1.0000 0.67929  0.66787  0.71432  Biso   1.000  O
  O198     1.0000 0.45023  0.68111  0.67401  Biso   1.000  O
  O199     1.0000 0.42115  0.73040  0.71553  Biso   1.000  O
  O200     1.0000 0.71595  0.86593  0.96415  Biso   1.000  O
  O201     1.0000 0.63420  0.84680  0.96444  Biso   1.000  O
  O202     1.0000 0.82264  0.80412  0.87434  Biso   1.000  O
  O203     1.0000 0.79343  0.75406  0.83281  Biso   1.000  O
  O204     1.0000 0.74164  0.58386  0.62281  Biso   1.000  O
  O205     1.0000 0.79297  0.61096  0.66396  Biso   1.000  O
  O206     1.0000 0.80362  0.46625  0.53597  Biso   1.000  O
  O207     1.0000 0.88554  0.44651  0.53578  Biso   1.000  O
  O208     1.0000 0.79618  0.66274  0.72957  Biso   1.000  O
  C511     1.0000 0.55572  0.71314  0.81026  Biso   1.000  C
  C512     1.0000 0.59871  0.73290  0.82500  Biso   1.000  C
  H226     1.0000 0.62520  0.74310  0.81110  Biso   1.000  H
  C513     1.0000 0.60327  0.73794  0.86037  Biso   1.000  C
  C514     1.0000 0.56295  0.72303  0.88071  Biso   1.000  C
  H227     1.0000 0.56490  0.72620  0.90430  Biso   1.000  H
  C515     1.0000 0.52010  0.70347  0.86577  Biso   1.000  C
  H228     1.0000 0.49340  0.69340  0.87950  Biso   1.000  H
  C516     1.0000 0.51628  0.69863  0.83117  Biso   1.000  C
  H229     1.0000 0.48710  0.68550  0.82160  Biso   1.000  H
  C517     1.0000 0.55247  0.70561  0.77258  Biso   1.000  C
  C518     1.0000 0.59445  0.69069  0.75435  Biso   1.000  C
  H230     1.0000 0.62540  0.68890  0.76540  Biso   1.000  H
  C519     1.0000 0.59145  0.67833  0.71998  Biso   1.000  C
  C520     1.0000 0.54577  0.68148  0.70352  Biso   1.000  C
  H231     1.0000 0.54340  0.67230  0.68070  Biso   1.000  H
  C521     1.0000 0.50340  0.69816  0.72069  Biso   1.000  C
  C522     1.0000 0.50727  0.71017  0.75517  Biso   1.000  C
  H232     1.0000 0.47890  0.72150  0.76680  Biso   1.000  H
  C523     1.0000 0.63724  0.66054  0.70092  Biso   1.000  C
  C524     1.0000 0.45430  0.70402  0.70200  Biso   1.000  C
  C525     1.0000 0.64849  0.76114  0.87651  Biso   1.000  C
  C526     1.0000 0.64411  0.78920  0.90642  Biso   1.000  C
  H233     1.0000 0.61260  0.79290  0.91640  Biso   1.000  H
  C527     1.0000 0.68468  0.81138  0.92158  Biso   1.000  C
  C528     1.0000 0.73207  0.80734  0.90675  Biso   1.000  C
  H234     1.0000 0.75970  0.82270  0.91690  Biso   1.000  H
  C529     1.0000 0.73781  0.78003  0.87653  Biso   1.000  C
  C530     1.0000 0.69645  0.75715  0.86193  Biso   1.000  C
  H235     1.0000 0.70050  0.73870  0.84200  Biso   1.000  H
  C531     1.0000 0.67809  0.84408  0.95250  Biso   1.000  C
  C532     1.0000 0.78878  0.77949  0.85990  Biso   1.000  C
  C533     1.0000 0.95513  0.51030  0.64692  Biso   1.000  C
  C534     1.0000 0.95690  0.52130  0.68260  Biso   1.000  C
  H236     1.0000 0.94400  0.55520  0.69020  Biso   1.000  H
  C535     1.0000 0.90808  0.51875  0.62790  Biso   1.000  C
  C536     1.0000 0.87030  0.54998  0.63986  Biso   1.000  C
  H237     1.0000 0.87520  0.56770  0.66010  Biso   1.000  H
  C537     1.0000 0.82531  0.55544  0.62236  Biso   1.000  C
  C538     1.0000 0.81796  0.53003  0.59200  Biso   1.000  C
  H238     1.0000 0.78780  0.53370  0.58030  Biso   1.000  H
  C539     1.0000 0.85510  0.49937  0.57901  Biso   1.000  C
  C540     1.0000 0.89985  0.49412  0.59709  Biso   1.000  C
  H239     1.0000 0.92500  0.47350  0.58830  Biso   1.000  H
  C541     1.0000 0.78334  0.58636  0.63782  Biso   1.000  C
  C542     1.0000 0.84680  0.46845  0.54745  Biso   1.000  C
  C543     1.0000 0.00260  0.51490  0.69955  Biso   1.000  C
  C544     1.0000 0.95330  0.49870  0.68170  Biso   1.000  C
  H240     1.0000 0.92590  0.51200  0.69620  Biso   1.000  H
  Cu33     1.0000 0.41741  0.21393  0.50000  Biso   1.000  Cu
  Cu34     1.0000 0.39525  0.11686  0.50000  Biso   1.000  Cu
  Cu35     1.0000 0.58259  0.78607  0.50000  Biso   1.000  Cu
  Cu36     1.0000 0.60475  0.88314  0.50000  Biso   1.000  Cu
  Cu37     1.0000 0.78607  0.41741  0.50000  Biso   1.000  Cu
  Cu38     1.0000 0.88314  0.39525  0.50000  Biso   1.000  Cu
  Cu39     1.0000 0.21393  0.58259  0.50000  Biso   1.000  Cu
  Cu40     1.0000 0.11686  0.60475  0.50000  Biso   1.000  Cu
  Cu41     1.0000 0.08259  0.71393  0.00000  Biso   1.000  Cu
  Cu42     1.0000 0.10475  0.61686  0.00000  Biso   1.000  Cu
  Cu43     1.0000 0.91741  0.28607  0.00000  Biso   1.000  Cu
  Cu44     1.0000 0.89525  0.38314  0.00000  Biso   1.000  Cu
  Cu45     1.0000 0.71393  0.91741  0.00000  Biso   1.000  Cu
  Cu46     1.0000 0.61686  0.89525  0.00000  Biso   1.000  Cu
  Cu47     1.0000 0.28607  0.08259  0.00000  Biso   1.000  Cu
  Cu48     1.0000 0.38314  0.10475  0.00000  Biso   1.000  Cu
  C545     1.0000 0.00000  0.50000  0.12966  Biso   1.000  C
  H241     1.0000 0.00000  0.50000  0.10590  Biso   1.000  H
  H242     1.0000 0.00000  0.50000  0.22250  Biso   1.000  H
  C546     1.0000 0.50000  0.00000  0.12966  Biso   1.000  C
  H243     1.0000 0.50000  0.00000  0.10590  Biso   1.000  H
  H244     1.0000 0.50000  0.00000  0.22250  Biso   1.000  H
  C547     1.0000 0.50000  0.00000  0.37034  Biso   1.000  C
  H245     1.0000 0.50000  0.00000  0.39410  Biso   1.000  H
  H246     1.0000 0.50000  0.00000  0.27750  Biso   1.000  H
  C548     1.0000 0.00000  0.50000  0.37034  Biso   1.000  C
  H247     1.0000 0.00000  0.50000  0.39410  Biso   1.000  H
  H248     1.0000 0.00000  0.50000  0.27750  Biso   1.000  H
  C549     1.0000 0.00000  0.50000  0.87034  Biso   1.000  C
  H249     1.0000 0.00000  0.50000  0.89410  Biso   1.000  H
  H250     1.0000 0.00000  0.50000  0.77750  Biso   1.000  H
  C550     1.0000 0.50000  0.00000  0.87034  Biso   1.000  C
  H251     1.0000 0.50000  0.00000  0.89410  Biso   1.000  H
  H252     1.0000 0.50000  0.00000  0.77750  Biso   1.000  H
  C551     1.0000 0.50000  0.00000  0.62966  Biso   1.000  C
  H253     1.0000 0.50000  0.00000  0.60590  Biso   1.000  H
  H254     1.0000 0.50000  0.00000  0.72250  Biso   1.000  H
  C552     1.0000 0.00000  0.50000  0.62966  Biso   1.000  C
  H255     1.0000 0.00000  0.50000  0.60590  Biso   1.000  H
  H256     1.0000 0.00000  0.50000  0.72250  Biso   1.000  H
  C553     1.0000 0.19670  0.30330  0.25000  Biso   1.000  C
  H257     1.0000 0.22140  0.27860  0.25000  Biso   1.000  H
  C554     1.0000 0.80330  0.69670  0.25000  Biso   1.000  C
  H258     1.0000 0.77860  0.72140  0.25000  Biso   1.000  H
  C555     1.0000 0.69670  0.19670  0.25000  Biso   1.000  C
  H259     1.0000 0.72140  0.22140  0.25000  Biso   1.000  H
  C556     1.0000 0.30330  0.80330  0.25000  Biso   1.000  C
  H260     1.0000 0.27860  0.77860  0.25000  Biso   1.000  H
  C557     1.0000 0.80330  0.69670  0.75000  Biso   1.000  C
  H261     1.0000 0.77860  0.72140  0.75000  Biso   1.000  H
  C558     1.0000 0.19670  0.30330  0.75000  Biso   1.000  C
  H262     1.0000 0.22140  0.27860  0.75000  Biso   1.000  H
  C559     1.0000 0.30330  0.80330  0.75000  Biso   1.000  C
  H263     1.0000 0.27860  0.77860  0.75000  Biso   1.000  H
  C560     1.0000 0.69670  0.19670  0.75000  Biso   1.000  C
  H264     1.0000 0.72140  0.22140  0.75000  Biso   1.000  H
